17

C 0.51450648 0.33003961 -0.19002821
N 1.63613459 0.74202750 -0.94405322
C 0.02855423 1.11269858 0.88771789
C -0.15500793 -0.87991240 -0.49957518
C -1.24351022 0.84843549 1.42430407
C -1.41738518 -1.14438112 0.05943560
C -1.97074316 -0.28620504 1.02544109
H 2.50903067 0.61266658 -0.44954341
H 0.63926238 1.91147853 1.31447043
H 0.30704807 -1.61478684 -1.16293814
H -1.66448526 1.53410995 2.16250429
H -1.96958153 -2.02901754 -0.26376462
H 1.56844077 1.69723349 -1.26860808
H -2.94980485 -0.49809682 1.45895564
O 1.95905035 -1.09563558 -3.29590802
H 1.44314667 -0.79054186 -4.04109266
H 1.84800392 -0.45664254 -2.58394747
