17

C 0.92243877 -0.07972676 -0.43004673
N 2.32496767 -0.21492521 -0.41834870
C 0.29254146 1.07495123 0.09998450
C 0.09845225 -1.13257277 -0.89553973
C -1.04707026 1.00283513 0.51778963
C -1.24853835 -1.18871080 -0.49654933
C -1.83282855 -0.12288633 0.21227975
H 2.71209067 -0.23196728 0.51783414
H 0.83841933 2.01814864 0.16531418
H 0.50605657 -1.89072013 -1.56661753
H -1.47780759 1.83197022 1.08314698
H -1.84307550 -2.07185590 -0.73905318
H 2.80926104 0.47574256 -0.97406184
H -2.87892810 -0.16979243 0.52076198
O 2.08523504 -0.23410127 2.75658250
H 1.96753596 -1.13316002 3.06487721
H 1.22770959 0.09634111 2.48206617
