17

C 0.84220019 -0.09267788 -0.27415513
N 2.24565550 -0.09797647 -0.14073451
C 0.10452683 1.11696513 -0.20177347
C 0.13095327 -1.30453704 -0.45201709
C -1.28722817 1.07704824 -0.01358091
C -1.26388931 -1.33050985 -0.28005893
C -1.98440039 -0.14257603 -0.06396328
H 2.56881909 0.32888651 0.71908763
H 0.61383791 2.07685821 -0.31012448
H 0.66494367 -2.21512264 -0.73011500
H -1.82939284 2.00713948 0.17012008
H -1.79060333 -2.28645385 -0.31588583
H 2.72923301 0.31506609 -0.92574435
H -3.06847516 -0.16709125 0.06100506
O 2.02157088 1.27823219 2.70236480
H 1.09512018 1.21001190 2.46295110
H 2.16358869 0.75630724 3.49304430
