17

C 0.73713119 -0.13204835 -0.21554054
N 2.06739872 -0.35685187 0.19271356
C 0.06479774 1.07465311 0.10719874
C 0.01790835 -1.13379749 -0.91151169
C -1.33790037 1.12975772 0.04281878
C -1.38379106 -1.06182107 -0.98859220
C -2.07288251 0.06979411 -0.51662559
H 2.18171999 -0.34995369 1.19921640
H 0.63479306 1.96305759 0.38685326
H 0.55259347 -1.95389382 -1.39429508
H -1.85779689 2.00868262 0.42995291
H -1.94006961 -1.89596414 -1.42110295
H 2.73603837 0.27229258 -0.22856855
H -3.16100574 0.12479434 -0.58545914
O 1.09597309 -0.21749947 3.19425821
H 0.95247979 -1.06220746 3.62233094
H 0.29527240 0.01447530 2.71972294
