17

C 0.95389093 -0.14553797 -0.42865674
N 2.34444164 -0.23309888 -0.64036635
C 0.35811346 1.05536784 0.03602430
C 0.12308435 -1.27256239 -0.64170808
C -0.96688966 1.04651863 0.50315571
C -1.20743797 -1.26120098 -0.18944500
C -1.76285506 -0.10579333 0.38711300
H 2.89204154 -0.03361754 0.18795012
H 0.92395286 1.98911645 0.02043758
H 0.51592707 -2.14874766 -1.16080686
H -1.37924476 1.94888160 0.95967033
H -1.81333183 -2.16420139 -0.28775374
H 2.67718157 0.32559462 -1.41321018
H -2.79614593 -0.10452249 0.73939011
O 2.78987889 0.49502454 2.44524562
H 1.84080038 0.35880628 2.41710332
H 2.96305254 1.27954268 2.96627687
