17

C 0.60886457 0.38290421 -0.21939478
N 1.86078869 0.77048966 -0.75016442
C 0.02713554 1.08591910 0.86683777
C -0.09063237 -0.72261201 -0.76490987
C -1.28845773 0.79648848 1.26890490
C -1.40887954 -0.99177718 -0.35851252
C -2.01514842 -0.24272289 0.66381815
H 2.62442722 0.59646099 -0.10977351
H 0.59655768 1.84942850 1.40204255
H 0.39114702 -1.37658684 -1.49550244
H -1.74634014 1.39004464 2.06309568
H -1.96299396 -1.79693349 -0.84516931
H 1.88030813 1.73728749 -1.04622024
H -3.03501706 -0.46554885 0.98259246
O 2.61150156 -1.01960848 -3.03462494
H 2.38106544 -0.38745626 -2.34532175
H 2.52213337 -0.57620707 -3.87727773
