17

C 0.53490157 0.34751429 -0.32784311
N 1.82116154 0.56811284 -0.87285694
C 0.00736241 1.20773761 0.66973085
C -0.23698417 -0.76713915 -0.74304341
C -1.20389511 0.88851373 1.30768841
C -1.45091519 -1.06471155 -0.09992140
C -1.94280595 -0.24422943 0.92872319
H 2.56146562 0.27667324 -0.24767758
H 0.53330240 2.12422501 0.94774529
H 0.10463633 -1.40174836 -1.56428240
H -1.57150745 1.53448745 2.10784936
H -2.01467472 -1.94760767 -0.40781164
H 1.97478747 1.52664207 -1.15553508
H -2.88441073 -0.48406137 1.42634320
O 2.21783969 -1.21979271 -3.25187962
H 2.01671767 -0.75203111 -4.06138103
H 2.11567862 -0.59911487 -2.52247812
