17

C 0.97784487 -0.22355528 0.32638078
N 2.37617053 -0.29384612 0.16887573
C 0.29522260 1.01904637 0.28796353
C 0.20646207 -1.40411554 0.45115412
C -1.07844762 1.04677366 -0.00723514
C -1.17230080 -1.36683315 0.18000546
C -1.82671615 -0.14313450 -0.04982034
H 2.68976464 0.01700506 -0.74281575
H 0.82790569 1.94668172 0.50683239
H 0.67992624 -2.33603624 0.76520608
H -1.56526926 2.00454011 -0.20232975
H -1.73760752 -2.30040475 0.14736986
H 2.89691910 0.18436081 0.89009590
H -2.89831722 -0.11797155 -0.25705828
O 1.91705245 0.68847528 -2.81086226
H 1.07950441 0.89207986 -2.39014361
H 1.78834596 -0.08349575 -3.36319872
