17

C 0.80256657 -0.12711402 -0.32863579
N 2.19117943 -0.32273919 -0.18592133
C 0.16062837 1.00789569 0.23006338
C 0.00442896 -1.09070207 -0.99212425
C -1.23511342 1.01052744 0.39264338
C -1.39171984 -1.07461711 -0.83035353
C -2.02350655 -0.02286412 -0.14330352
H 2.48407519 -0.40945560 0.77984570
H 0.74568300 1.88451599 0.51674139
H 0.47314120 -1.83760977 -1.63543840
H -1.70846086 1.82791219 0.94070295
H -1.98872279 -1.88951927 -1.24530358
H 2.75245488 0.37796134 -0.64907058
H -3.10904540 -0.00852957 -0.02880468
O 1.78892597 -0.57071772 2.93476345
H 1.72123233 -1.48751434 3.20371752
H 0.91491295 -0.27395984 2.67384791
