17

C 0.92132519 -0.05806447 -0.41003141
N 2.32647775 -0.14474192 -0.35569707
C 0.24931367 1.16033226 -0.13637068
C 0.13639754 -1.20776912 -0.66622292
C -1.09775137 1.13356149 0.26229110
C -1.21819639 -1.22217978 -0.29110885
C -1.84695274 -0.05331205 0.17524536
H 2.70008831 0.05840785 0.56372144
H 0.76821953 2.11357415 -0.25444193
H 0.58003465 -2.07387752 -1.16016712
H -1.56363042 2.04603983 0.64001968
H -1.78401034 -2.15319305 -0.36200813
H 2.79922623 0.41931590 -1.04743713
H -2.89932439 -0.06795802 0.46483058
O 2.10178885 0.55817574 2.73660628
H 2.07367543 -0.20476240 3.31478014
H 1.20977849 0.72602111 2.42641068
