17

C 0.89698506 -0.05407032 -0.52906108
N 2.29946908 -0.18595719 -0.55132152
C 0.27503290 1.07957119 0.05322170
C 0.06665554 -1.09060699 -1.01898950
C -1.05894162 0.99157238 0.48592611
C -1.27450041 -1.16183790 -0.60360978
C -1.84930627 -0.12190705 0.14975291
H 2.70716581 -0.24528078 0.37427875
H 0.82182659 2.02002156 0.14691548
H 0.46457823 -1.82399444 -1.72274644
H -1.48182580 1.79897193 1.08737160
H -1.87248738 -2.03577237 -0.86935296
H 2.77115397 0.53003868 -1.08524578
H -2.89200937 -0.17869434 0.46805823
O 2.17538145 -0.29554235 2.63134777
H 2.11708521 -1.17901915 2.99659493
H 1.29019702 -0.01792286 2.38727959
