17

C 0.90435765 0.03256981 -0.38789297
N 2.30586965 0.00438180 -0.25024751
C 0.18118847 1.24903591 -0.30640068
C 0.16800892 -1.17047291 -0.50549447
C -1.17325216 1.22376632 0.06740134
C -1.18902311 -1.19066625 -0.13981910
C -1.87367654 0.00609929 0.14059571
H 2.61023428 0.20549352 0.69489384
H 0.66578722 2.19669621 -0.54903305
H 0.64922060 -2.07140136 -0.89009339
H -1.68252599 2.16111433 0.30037386
H -1.71265290 -2.14649414 -0.07389056
H 2.79813916 0.59835794 -0.90185636
H -2.93181307 -0.00971587 0.40825737
O 1.73222882 0.15910377 2.85175539
H 1.58632235 -0.78704723 2.88763198
H 0.91804666 0.56874887 2.55423861
