17

C 0.42732652 0.44003653 -0.22479687
N 1.61293058 0.83473217 -0.88739352
C -0.01645275 1.11896365 0.93926861
C -0.33251986 -0.65611252 -0.70616861
C -1.19971903 0.71789272 1.58314625
C -1.51753310 -1.03676550 -0.05294246
C -1.95865576 -0.35830089 1.09500121
H 2.44500111 0.62853722 -0.35019273
H 0.55620624 1.95660024 1.34430011
H -0.00157200 -1.21553048 -1.58433865
H -1.52924447 1.25479121 2.47511280
H -2.09808720 -1.87357536 -0.44672672
H 1.61196462 1.81157569 -1.14899648
H -2.87701652 -0.66310621 1.60027814
O 2.07020803 -0.85639625 -3.31365676
H 1.95967844 -0.35051534 -4.11754521
H 1.93014513 -0.25935686 -2.57097912
