17

C 0.33215887 0.46387948 -0.27307819
N 1.54217246 0.77580622 -0.93478193
C -0.07828654 1.18241256 0.87933806
C -0.47465124 -0.61058809 -0.72453468
C -1.14430912 0.70520253 1.66199190
C -1.53968696 -1.07281866 0.06752968
C -1.88433468 -0.42075038 1.26326793
H 2.35581979 0.45324728 -0.42733833
H 0.42279342 2.11081946 1.16315837
H -0.27712854 -1.08410987 -1.68897832
H -1.39678725 1.22068970 2.59103056
H -2.10229914 -1.95074386 -0.25630459
H 1.64057626 1.75989382 -1.14403587
H -2.71288233 -0.78473293 1.87378483
O 1.70850355 -0.78798203 -3.48489798
H 1.51130210 -0.23094382 -4.23660872
H 1.67969936 -0.23581143 -2.69617273
