17

C 0.50596287 0.48288275 -0.09940264
N 1.64087362 1.05146891 -0.72047434
C 0.08528257 0.90710451 1.18664517
C -0.24450302 -0.52366911 -0.75650981
C -1.18676043 0.54257171 1.66154106
C -1.51456398 -0.88001994 -0.27079248
C -1.99423148 -0.35466639 0.94136168
H 2.50858741 0.76408392 -0.28716501
H 0.74577073 1.50560410 1.81817825
H 0.16097045 -1.03378855 -1.63325990
H -1.54598002 0.96357361 2.60291699
H -2.13012787 -1.57490741 -0.84561599
H 1.60267537 2.06090893 -0.76611932
H -2.97950460 -0.63761359 1.31629692
O 1.93590647 -0.07920863 -3.48403732
H 1.52781947 0.48787224 -4.13700702
H 1.83828247 0.34737295 -2.62613625
