17

C 0.92777241 0.11548427 0.32012294
N 2.29440411 0.40008507 0.13077980
C 0.07045289 1.06635668 0.92381415
C 0.35505807 -1.09126548 -0.15658384
C -1.31693037 0.98345735 0.71327899
C -1.03023560 -1.15853120 -0.38258572
C -1.87965900 -0.13033946 0.06361572
H 2.91739117 -0.24638915 0.59351196
H 0.48558493 1.85310296 1.55630495
H 0.98202470 -1.96861292 -0.32809967
H -1.96099147 1.79458992 1.05860958
H -1.44635171 -2.02060981 -0.90813544
H 2.55072818 0.48145419 -0.84593447
H -2.95846911 -0.19565693 -0.09010652
O 1.70141032 0.37162780 -2.99372520
H 1.49980626 1.21141076 -3.40773098
H 0.89066423 0.02730593 -2.61376626
