17

C 0.60272531 -0.22297997 -0.43130687
N 1.94912379 -0.18601372 -0.86188286
C -0.21519574 0.93050397 -0.53357890
C 0.05376026 -1.39710282 0.14552254
C -1.48650816 0.94893400 0.06583433
C -1.21862802 -1.35974567 0.74211441
C -1.99971012 -0.19280032 0.70351672
H 2.18858148 -0.95092552 -1.47830443
H 0.13371627 1.81042586 -1.07911365
H 0.61025219 -2.33707528 0.12640317
H -2.07894867 1.86545219 0.03131630
H -1.60087079 -2.25376109 1.23925858
H 2.60172306 -0.15625145 -0.08924519
H -2.99061025 -0.17308689 1.16119990
O 2.48334395 2.40172456 -2.27073734
H 2.34669249 1.54181624 -1.85889754
H 2.57701296 2.26045592 -3.21167916
