17

C 0.76608301 -0.03741021 -0.24121083
N 2.09587017 0.03645105 -0.71402687
C -0.03064857 1.13142292 -0.15589200
C 0.19689686 -1.27392227 0.15782877
C -1.41581601 1.02182486 0.05616822
C -1.18709908 -1.36579299 0.38896983
C -2.00310815 -0.22234244 0.34273230
H 2.29524110 -0.62781550 -1.44962195
H 0.42585095 2.12032349 -0.24155007
H 0.82596924 -2.15599431 0.29728132
H -2.03701786 1.91810028 0.00090914
H -1.62822698 -2.34052715 0.60753522
H 2.78051046 -0.05800179 0.02464597
H -3.07625218 -0.29943619 0.52729160
O 2.62724330 2.83176070 -1.67988752
H 2.47558694 1.91322486 -1.43329011
H 2.34537679 2.93770469 -2.58746302
