17

C 0.79844516 -0.07002502 -0.28449421
N 2.18976344 -0.18606862 -0.09047754
C 0.12733260 1.15995526 -0.06142680
C 0.02936286 -1.19730850 -0.66294471
C -1.27305930 1.18265130 0.05318217
C -1.37063976 -1.16224619 -0.54624784
C -2.03374934 0.02750818 -0.19790988
H 2.47864721 0.01566153 0.85913869
H 0.69532912 2.09025723 0.00509368
H 0.52419443 -2.08894188 -1.05212888
H -1.77184324 2.11128427 0.33884196
H -1.94643472 -2.07160251 -0.73090033
H 2.73978242 0.36095334 -0.73743083
H -3.12265198 0.05427365 -0.12677767
O 1.76828040 0.47337621 2.96555843
H 1.74190763 -0.29465177 3.53730176
H 0.88179308 0.62449352 2.63204200
