17

C 0.56380364 -0.01730841 -0.36890559
N 1.79885024 0.13584569 -1.03990293
C -0.30555109 1.08975451 -0.20298538
C 0.16402106 -1.27768876 0.14484121
C -1.60817756 0.89453926 0.28767076
C -1.14010959 -1.45448076 0.63854834
C -2.03389863 -0.37343004 0.71801151
H 1.87737497 -0.45772236 -1.85486247
H 0.03202873 2.10018890 -0.44531771
H 0.86481206 -2.11539354 0.16777342
H -2.29242245 1.74403267 0.33449864
H -1.45690088 -2.44747193 0.96418435
H 2.59406951 -0.01367619 -0.43276767
H -3.04328666 -0.51625315 1.10830602
O 2.19671713 3.01351804 -1.77795914
H 2.08602768 2.07013552 -1.61776658
H 2.15910184 3.15498057 -2.72294680
