17

C 0.80747880 -0.09967245 -0.30353640
N 2.19561450 -0.24696490 -0.10872179
C 0.14350054 1.10618176 0.03978454
C 0.03139449 -1.17636437 -0.79724633
C -1.25435380 1.11795211 0.18113797
C -1.36721252 -1.15120903 -0.65927132
C -2.02191521 -0.00390773 -0.17696163
H 2.47584750 -0.13646800 0.85839275
H 0.71406776 2.02686981 0.17817249
H 0.51880831 -2.01997924 -1.28972075
H -1.74545249 2.01171323 0.57207139
H -1.94858637 -2.03465209 -0.93121512
H 2.75686142 0.35348627 -0.69608219
H -3.10940902 0.01628000 -0.08419824
O 1.72955452 0.13081062 2.99661545
H 1.67145548 -0.69881101 3.47155119
H 0.85880607 0.33430502 2.64964800
