17

C 0.91826967 0.13424056 0.41867013
N 2.30712698 0.37393068 0.43511592
C 0.03448642 0.97410300 1.13898055
C 0.36511128 -0.91483572 -0.35976511
C -1.34242553 0.94763618 0.85786629
C -1.01156056 -0.92645067 -0.63993333
C -1.87780439 -0.00434229 -0.02762042
H 2.84878050 -0.38011121 0.83317889
H 0.42226619 1.63522798 1.91618997
H 1.00351717 -1.72041323 -0.72811885
H -2.00047459 1.67680183 1.33484627
H -1.40773105 -1.66332172 -1.34176018
H 2.67980383 0.61754622 -0.47476166
H -2.94924640 -0.02753490 -0.23577206
O 2.17597315 1.04818540 -2.64572060
H 2.13555916 1.98015943 -2.86279605
H 1.28100817 0.74264846 -2.48522975
