17

C 0.35365777 -0.33134961 -0.27327002
N 1.37282000 -0.41589228 -1.24815775
C -0.44093767 0.83687353 -0.16400524
C 0.09750806 -1.40789794 0.61335769
C -1.61112808 0.81834002 0.61440017
C -1.07987225 -1.41626229 1.38168653
C -1.93844284 -0.30362109 1.39491539
H 1.29694026 -1.23789266 -1.83202973
H -0.14592136 1.75733382 -0.67306448
H 0.81372866 -2.22654801 0.71368424
H -2.26898734 1.68965722 0.60992815
H -1.32364320 -2.29947930 1.97576141
H 2.30074504 -0.36675036 -0.84854534
H -2.84552344 -0.30980663 2.00200401
O 1.34322099 2.05483600 -2.94452407
H 0.81653822 1.92734931 -3.73232556
H 1.34195719 1.22458027 -2.45644538
