17

C 0.88906781 -0.13092696 -0.37415171
N 2.27649053 -0.36491078 -0.29897259
C 0.28932519 0.95216191 0.31793876
C 0.04520804 -1.01990584 -1.08292888
C -1.08941479 0.92630343 0.58808519
C -1.33377660 -1.03674983 -0.81093499
C -1.91412005 -0.05919990 0.01738381
H 2.58827226 -0.59386943 0.63741807
H 0.89164872 1.80981651 0.62426134
H 0.46353307 -1.68203750 -1.84315981
H -1.52049736 1.68237439 1.24783037
H -1.95789993 -1.81796078 -1.24977660
H 2.84101577 0.38494690 -0.67205307
H -2.98827653 -0.06438925 0.21198086
O 1.86034473 -0.97814148 2.78751574
H 1.73160442 -1.90475064 2.99292924
H 1.01013471 -0.60929075 2.54000426
