17

C 0.94009435 -0.26335162 0.33946117
N 2.33729824 -0.42440199 0.25167481
C 0.31887226 0.96017827 -0.01969298
C 0.11343268 -1.34441050 0.73078545
C -1.05577192 0.98398556 -0.30978661
C -1.26481975 -1.30473819 0.45726882
C -1.86125252 -0.14170467 -0.06221195
H 2.69054868 -0.32660164 -0.69274057
H 0.90122317 1.88336784 -0.05208083
H 0.54514929 -2.20147615 1.25075282
H -1.49828408 1.88994571 -0.72935228
H -1.87541568 -2.18900228 0.65118283
H 2.85960528 0.17634624 0.87345722
H -2.93275924 -0.11403661 -0.26896066
O 2.10806308 -0.00807466 -2.86988642
H 2.02235857 -0.83653260 -3.34264808
H 1.23431759 0.25397729 -2.57385275
