17

C 0.80647443 -0.16743927 -0.31736603
N 2.19484784 -0.38093994 -0.19828785
C 0.17383102 0.91596878 0.34480222
C 0.00092882 -1.06455371 -1.06040337
C -1.22321255 0.92567926 0.49322949
C -1.39663434 -1.03891476 -0.91284723
C -2.02020963 -0.04293356 -0.14088263
H 2.49174629 -0.54153502 0.75690541
H 0.76902764 1.74846451 0.72575818
H 0.46527738 -1.77003138 -1.75186234
H -1.69025627 1.69806380 1.10798495
H -2.00168082 -1.80281281 -1.40577601
H 2.75737177 0.35025283 -0.61007494
H -3.10663332 -0.02088109 -0.03723608
O 1.76220598 -0.89038167 2.89127117
H 1.71232679 -1.81652647 3.13061255
H 0.88724898 -0.60800951 2.61754252
