17

C 0.93366307 -0.14852414 -0.36542971
N 2.34060021 -0.21568965 -0.41363901
C 0.26714570 1.07774659 -0.11089200
C 0.15176987 -1.31828716 -0.52713694
C -1.08973079 1.07396694 0.25353437
C -1.20938517 -1.30679244 -0.17716544
C -1.84161397 -0.11314591 0.21344726
H 2.78560514 0.05506868 0.45487739
H 0.80237199 2.02408380 -0.21343877
H 0.60574666 -2.22665400 -0.92756979
H -1.56189723 2.00733059 0.56771267
H -1.77842948 -2.23832220 -0.21000006
H 2.74948453 0.29943628 -1.18016390
H -2.90003614 -0.10873160 0.48055774
O 2.46880218 0.96235081 2.55401449
H 1.51651976 0.97056942 2.43920222
H 2.71584369 1.73516398 3.06250948
