17

C 0.51125761 0.28251683 -0.37744332
N 1.80057151 0.43763470 -0.93696956
C 0.00458181 1.22176872 0.55722754
C -0.28645378 -0.83977295 -0.71486299
C -1.20527996 0.96827901 1.22620501
C -1.49340592 -1.07744976 -0.03521553
C -1.96442718 -0.17701027 0.93469663
H 2.53679055 0.23841219 -0.27216461
H 0.54651585 2.14812142 0.76130256
H 0.02915877 -1.52622437 -1.50415001
H -1.55484097 1.67594540 1.98115268
H -2.06873596 -1.97555356 -0.26914380
H 1.94919682 1.35183636 -1.34275828
H -2.90650086 -0.36496051 1.45304603
O 2.26996233 -1.65610606 -3.02736700
H 2.27057987 -1.27434695 -3.90398397
H 2.14368952 -0.93962019 -2.39620138
