17

C 0.76159469 -0.18218629 -0.25517992
N 2.12707151 -0.43412558 -0.01344475
C 0.10842289 0.93449133 0.32650146
C -0.00432754 -1.06924365 -1.05013581
C -1.29528436 0.97808827 0.36931681
C -1.40812166 -1.00749458 -1.01358812
C -2.06490899 0.01644587 -0.30840538
H 2.34120600 -0.56647987 0.96768371
H 0.69348836 1.76648024 0.72422756
H 0.49561994 -1.79358834 -1.69587863
H -1.78916465 1.77109738 0.93469979
H -1.99164938 -1.76554954 -1.53997013
H 2.74561522 0.26168659 -0.40542005
H -3.15533649 0.06411954 -0.28809908
O 1.48174384 -0.95574528 3.02438157
H 1.40373053 -1.90515052 3.12605288
H 0.63296009 -0.61937557 2.73062808
