17

C 0.83738514 -0.11737153 -0.37081625
N 2.23552755 -0.28539905 -0.31493020
C 0.20976585 1.01076327 0.21739936
C 0.01769319 -1.10209008 -0.97388976
C -1.16894605 0.97983399 0.48643376
C -1.36588209 -1.10850224 -0.72569639
C -1.97092097 -0.06936810 0.00384591
H 2.59350672 -0.33734351 0.63119554
H 0.79085430 1.90721586 0.44333041
H 0.45972496 -1.84918156 -1.63580668
H -1.61809832 1.78380448 1.07361761
H -1.97405795 -1.93247397 -1.10460458
H 2.75199430 0.40895675 -0.83593562
H -3.04642887 -0.07687241 0.19059405
O 2.07675729 -0.51499038 2.82188675
H 2.08452869 -1.43217295 3.09775761
H 1.16925626 -0.27133857 2.62898847
