17

C 0.91239123 -0.07724898 -0.42997504
N 2.31692841 -0.18791706 -0.41053153
C 0.26539399 1.12669841 -0.05096122
C 0.10519723 -1.19161452 -0.76310544
C -1.08040884 1.09364563 0.35170333
C -1.24850036 -1.20862926 -0.38435839
C -1.85327978 -0.06745128 0.17321379
H 2.71443585 -0.03922467 0.50938283
H 0.80283548 2.07624274 -0.09084592
H 0.53113626 -2.02936443 -1.31834822
H -1.52664567 1.98181365 0.80393038
H -1.83332009 -2.11991474 -0.52438013
H 2.78479748 0.40254139 -1.08337059
H -2.90601518 -0.08336743 0.46144558
O 2.17117461 0.31131722 2.71943776
H 2.15358850 -0.50280485 3.22329602
H 1.27295088 0.50874818 2.44683680
