17

C 0.51751471 -0.22524031 -0.40665374
N 1.78411392 -0.16414072 -1.03269005
C -0.30016655 0.93024221 -0.33177970
C 0.05369712 -1.42790468 0.18641245
C -1.49870632 0.90173998 0.40108904
C -1.14350352 -1.43493965 0.92329393
C -1.92941663 -0.27595624 1.03398641
H 1.91795352 -0.88700869 -1.72698719
H -0.00568840 1.85046032 -0.84174175
H 0.61844067 -2.35625273 0.07313604
H -2.09839091 1.81115303 0.47617438
H -1.46275241 -2.35738617 1.41303828
H 2.54586318 -0.18699752 -0.36720453
H -2.86028700 -0.28930526 1.60371615
O 2.15276437 2.52966400 -2.30006279
H 2.10692689 2.47399225 -3.25358421
H 2.05809736 1.63745019 -1.94972270
