17

C 0.59054221 -0.09936451 -0.34455812
N 1.82117814 0.04296642 -1.02542335
C -0.25138654 1.02299279 -0.14236596
C 0.17521506 -1.35897923 0.15815233
C -1.54497892 0.84820860 0.37867086
C -1.12425335 -1.51789978 0.67020246
C -1.98986012 -0.41826704 0.79405708
H 1.93940764 -0.62368882 -1.77629655
H 0.10090476 2.02928612 -0.38129929
H 0.86179291 -2.20881594 0.15997460
H -2.20747433 1.71209619 0.46116694
H -1.45868810 -2.51102076 0.97768281
H 2.61797729 -0.00139533 -0.40359894
H -2.99196298 -0.54492756 1.20797337
O 2.09796470 2.83694738 -2.06278381
H 1.80654213 2.90728791 -2.97077679
H 2.01353951 1.91414355 -1.80035766
