17

C 0.89401543 0.13685042 0.18363989
N 2.27192344 0.32960413 -0.04044502
C 0.05242467 1.23476254 0.48530390
C 0.30266139 -1.14603313 0.05523405
C -1.33934371 1.10975837 0.33199236
C -1.08816122 -1.25876423 -0.10951292
C -1.92161314 -0.13621850 0.03740019
H 2.55791263 0.09775998 -0.98413612
H 0.48325271 2.17131092 0.84434438
H 0.92269371 -2.04366667 0.10135690
H -1.97187392 1.99256607 0.44396461
H -1.52163036 -2.23108137 -0.35282307
H 2.86476321 -0.15088341 0.62145285
H -3.00343316 -0.23083222 -0.07478355
O 1.84284624 -0.63268124 -3.03005316
H 1.76525931 0.02206764 -3.72482011
H 0.97096277 -0.77104930 -2.65474517
