17

C 0.92897123 -0.07958003 -0.44500978
N 2.32959199 -0.22993745 -0.43515184
C 0.30537278 1.04140306 0.15943514
C 0.09862168 -1.09036089 -0.98474153
C -1.03368813 0.94700092 0.57506342
C -1.24560033 -1.17206715 -0.58174728
C -1.82439803 -0.15342917 0.19767093
H 2.70770001 -0.35094989 0.49685395
H 0.85395537 1.97729516 0.28162565
H 0.49866701 -1.79377921 -1.71715166
H -1.45963317 1.73851946 1.19516334
H -1.84251460 -2.03685338 -0.87812979
H 2.82673922 0.50927138 -0.91101332
H -2.87010882 -0.21654414 0.50436238
O 2.09876959 -0.51671438 2.71641097
H 1.96563898 -1.42623875 2.98535657
H 1.24457522 -0.15356556 2.47437284
