17

  C      0.93975     0.03546    -0.05345
  N      2.33279     0.10563    -0.22225
  C      0.19670     1.19232     0.21415
  C      0.25979    -1.17377    -0.24700
  C     -1.19105     1.13280     0.31270
  C     -1.12815    -1.22689    -0.14731
  C     -1.86416    -0.07480     0.12867
  H      2.80481    -0.76870    -0.01573
  H      0.71332     2.14019     0.35425
  H      0.82574    -2.07712    -0.46757
  H     -1.74894     2.04100     0.52753
  H     -1.63649    -2.17669    -0.29463
  H      2.76149     0.86033     0.30372
  H     -2.94671    -0.11886     0.20673
  O      1.78263     0.59654    -2.40684
  H      1.32469    -0.24882    -2.49586
  H      2.03025     0.79095    -3.29669
