6344
     RDKit          3D

  5  4  0  0  0  0  0  0  0  0999 V2000
   -1.4575    0.8787   -0.0491 Cl  0  0  0  0  0  0  0  0  0  0  0  0
    1.4861    0.8494   -0.0272 Cl  0  0  0  0  0  0  0  0  0  0  0  0
   -0.0008   -0.1395   -0.0097 C   0  0  0  0  0  0  0  0  0  0  0  0
   -0.0307   -0.7245    0.9358 H   0  0  0  0  0  0  0  0  0  0  0  0
    0.0030   -0.8639   -0.8498 H   0  0  0  0  0  0  0  0  0  0  0  0
  1  3  1  0
  2  3  1  0
  3  4  1  0
  3  5  1  0
M  END
