
 OpenBabel06082210043D

 36 38  0  0  0  0  0  0  0  0999 V2000
   -1.8147    1.6915    1.3643 C   0  0  0  0  0  0  0  0  0  0  0  0
   -2.3158    3.0261    0.9704 C   0  0  0  0  0  0  0  0  0  0  0  0
   -2.0349    3.2533   -0.2527 N   0  0  0  0  0  0  0  0  0  0  0  0
   -1.3254    2.1253   -0.8187 C   0  0  0  0  0  0  0  0  0  0  0  0
   -1.3450    1.9387   -2.0539 O   0  0  0  0  0  0  0  0  0  0  0  0
   -0.7303    1.4629    0.3289 C   0  0  2  0  0  0  0  0  0  0  0  0
   -0.3697    0.0302    0.2002 C   0  0  1  0  0  0  0  0  0  0  0  0
   -1.4937   -0.8648   -0.2012 C   0  0  0  0  0  0  0  0  0  0  0  0
   -1.7355   -1.1399   -1.5205 C   0  0  0  0  0  0  0  0  0  0  0  0
   -2.7902   -1.9710   -1.8918 C   0  0  0  0  0  0  0  0  0  0  0  0
   -3.5971   -2.5214   -0.9210 C   0  0  0  0  0  0  0  0  0  0  0  0
   -3.3629   -2.2519    0.4098 C   0  0  0  0  0  0  0  0  0  0  0  0
   -2.3273   -1.4366    0.7606 C   0  0  0  0  0  0  0  0  0  0  0  0
    0.7503   -0.2732   -0.6233 N   0  0  0  0  0  0  0  0  0  0  0  0
    1.9845   -0.1900   -0.3269 C   0  0  0  0  0  0  0  0  0  0  0  0
    2.4098    0.2586    0.9863 C   0  0  0  0  0  0  0  0  0  0  0  0
    3.6877    0.3630    1.3456 C   0  0  0  0  0  0  0  0  0  0  0  0
    4.6964   -0.0046    0.3318 C   0  0  0  0  0  0  0  0  0  0  0  0
    5.9480    0.0683    0.5994 N   0  0  0  0  0  0  0  0  0  0  0  0
    4.2903   -0.4582   -0.9946 C   0  0  0  0  0  0  0  0  0  0  0  0
    3.0053   -0.5498   -1.3175 C   0  0  0  0  0  0  0  0  0  0  0  0
   -1.4360    1.6495    2.3929 H   0  0  0  0  0  0  0  0  0  0  0  0
   -2.6572    0.9916    1.1754 H   0  0  0  0  0  0  0  0  0  0  0  0
   -2.8406    3.6713    1.6725 H   0  0  0  0  0  0  0  0  0  0  0  0
    0.1471    2.0623    0.7125 H   0  0  0  0  0  0  0  0  0  0  0  0
   -0.1134   -0.3055    1.2610 H   0  0  0  0  0  0  0  0  0  0  0  0
   -1.1181   -0.7349   -2.3297 H   0  0  0  0  0  0  0  0  0  0  0  0
   -2.9814   -2.1894   -2.9530 H   0  0  0  0  0  0  0  0  0  0  0  0
   -4.4197   -3.1684   -1.1937 H   0  0  0  0  0  0  0  0  0  0  0  0
   -4.0305   -2.7118    1.1496 H   0  0  0  0  0  0  0  0  0  0  0  0
   -2.1733   -1.2522    1.8073 H   0  0  0  0  0  0  0  0  0  0  0  0
    1.6851    0.5267    1.7261 H   0  0  0  0  0  0  0  0  0  0  0  0
    3.9905    0.6987    2.3277 H   0  0  0  0  0  0  0  0  0  0  0  0
    6.6651   -0.1888   -0.1092 H   0  0  0  0  0  0  0  0  0  0  0  0
    5.0610   -0.7181   -1.7090 H   0  0  0  0  0  0  0  0  0  0  0  0
    2.6914   -0.8873   -2.3051 H   0  0  0  0  0  0  0  0  0  0  0  0
  1  2  1  0  0  0  0
  1 22  1  0  0  0  0
  1 23  1  0  0  0  0
  2  3  2  0  0  0  0
  2 24  1  0  0  0  0
  3  4  1  0  0  0  0
  4  5  2  0  0  0  0
  4  6  1  0  0  0  0
  6  7  1  0  0  0  0
  6  1  1  0  0  0  0
  6 25  1  1  0  0  0
  7  8  1  0  0  0  0
  7 14  1  0  0  0  0
  7 26  1  1  0  0  0
  8  9  2  0  0  0  0
  9 10  1  0  0  0  0
  9 27  1  0  0  0  0
 10 11  2  0  0  0  0
 10 28  1  0  0  0  0
 11 12  1  0  0  0  0
 11 29  1  0  0  0  0
 12 13  2  0  0  0  0
 12 30  1  0  0  0  0
 13  8  1  0  0  0  0
 13 31  1  0  0  0  0
 14 15  2  3  0  0  0
 15 16  1  0  0  0  0
 16 17  2  0  0  0  0
 16 32  1  0  0  0  0
 17 18  1  0  0  0  0
 17 33  1  0  0  0  0
 18 19  2  3  0  0  0
 18 20  1  0  0  0  0
 19 34  1  0  0  0  0
 20 21  2  0  0  0  0
 20 35  1  0  0  0  0
 21 15  1  0  0  0  0
 21 36  1  0  0  0  0
M  END
$$$$
