
     RDKit          3D

 36 38  0  0  0  0  0  0  0  0999 V2000
   -2.2325    1.9070   -0.1431 C   0  0  0  0  0  0  0  0  0  0  0  0
   -1.9714    3.2431    0.0683 C   0  0  0  0  0  0  0  0  0  0  0  0
   -0.6591    3.4477    0.0722 N   0  0  0  0  0  0  0  0  0  0  0  0
   -0.0332    2.2736   -0.1341 C   0  0  0  0  0  0  0  0  0  0  0  0
    1.3402    2.0962   -0.1973 O   0  0  0  0  0  0  0  0  0  0  0  0
   -0.9801    1.2870   -0.2740 C   0  0  0  0  0  0  0  0  0  0  0  0
   -0.8450   -0.1541   -0.3534 C   0  0  0  0  0  0  0  0  0  0  0  0
   -2.0018   -0.9635   -0.8284 C   0  0  0  0  0  0  0  0  0  0  0  0
   -2.9819   -0.4303   -1.5928 C   0  0  0  0  0  0  0  0  0  0  0  0
   -4.1074   -1.1913   -1.9534 C   0  0  0  0  0  0  0  0  0  0  0  0
   -4.1639   -2.4879   -1.5011 C   0  0  0  0  0  0  0  0  0  0  0  0
   -3.1728   -3.0446   -0.7250 C   0  0  0  0  0  0  0  0  0  0  0  0
   -2.0761   -2.2900   -0.3768 C   0  0  0  0  0  0  0  0  0  0  0  0
    0.1531   -0.7917   -0.0822 N   0  0  0  0  0  0  0  0  0  0  0  0
    1.4351   -0.6341    0.3513 C   0  0  0  0  0  0  0  0  0  0  0  0
    1.7535   -0.3569    1.6929 C   0  0  0  0  0  0  0  0  0  0  0  0
    3.0393   -0.2270    2.1429 C   0  0  0  0  0  0  0  0  0  0  0  0
    4.1252   -0.3602    1.3040 C   0  0  0  0  0  0  0  0  0  0  0  0
    5.4424   -0.2176    1.8116 N   0  0  0  0  0  0  0  0  0  0  0  0
    3.8336   -0.6322   -0.0145 C   0  0  0  0  0  0  0  0  0  0  0  0
    2.5565   -0.7663   -0.4870 C   0  0  0  0  0  0  0  0  0  0  0  0
   -3.2037    1.4631   -0.1501 H   0  0  0  0  0  0  0  0  0  0  0  0
   -2.7181    4.0362    0.2139 H   0  0  0  0  0  0  0  0  0  0  0  0
   -0.1310    4.3636    0.2102 H   0  0  0  0  0  0  0  0  0  0  0  0
    1.9684    2.8453    0.0650 H   0  0  0  0  0  0  0  0  0  0  0  0
   -2.9538    0.5579   -2.0226 H   0  0  0  0  0  0  0  0  0  0  0  0
   -4.9065   -0.7925   -2.5604 H   0  0  0  0  0  0  0  0  0  0  0  0
   -5.0320   -3.0945   -1.7719 H   0  0  0  0  0  0  0  0  0  0  0  0
   -3.2345   -4.0773   -0.3756 H   0  0  0  0  0  0  0  0  0  0  0  0
   -1.2936   -2.7248    0.2342 H   0  0  0  0  0  0  0  0  0  0  0  0
    0.8925   -0.2547    2.3405 H   0  0  0  0  0  0  0  0  0  0  0  0
    3.2464   -0.0093    3.2028 H   0  0  0  0  0  0  0  0  0  0  0  0
    5.5730    0.3336    2.6786 H   0  0  0  0  0  0  0  0  0  0  0  0
    6.2848   -0.6359    1.3611 H   0  0  0  0  0  0  0  0  0  0  0  0
    4.7062   -0.7376   -0.6800 H   0  0  0  0  0  0  0  0  0  0  0  0
    2.3481   -0.9799   -1.5259 H   0  0  0  0  0  0  0  0  0  0  0  0
  1  2  2  0
  2  3  1  0
  3  4  1  0
  4  5  1  0
  4  6  2  0
  6  7  1  0
  7  8  1  0
  8  9  2  0
  9 10  1  0
 10 11  2  0
 11 12  1  0
 12 13  2  0
  7 14  2  3
 14 15  1  0
 15 16  2  0
 16 17  1  0
 17 18  2  0
 18 19  1  0
 18 20  1  0
 20 21  2  0
  6  1  1  0
 13  8  1  0
 21 15  1  0
  1 22  1  0
  2 23  1  0
  3 24  1  0
  5 25  1  0
  9 26  1  0
 10 27  1  0
 11 28  1  0
 12 29  1  0
 13 30  1  0
 16 31  1  0
 17 32  1  0
 19 33  1  0
 19 34  1  0
 20 35  1  0
 21 36  1  0
M  END
