22

C 1.62775318 -0.70945050 -1.14908971
N 0.90720831 0.36918267 -0.59911276
C -0.40327760 0.13439347 -0.06509389
C -0.58352283 -0.04905658 1.32813899
C 1.41633236 1.75779161 -0.57348558
C -1.53592642 0.13474143 -0.91640542
C -1.87220364 -0.24080251 1.84672180
C -2.98947267 -0.24787261 1.00009784
C -2.81585093 -0.05905276 -0.37790646
H 0.27648796 -0.04346671 2.00111756
H -1.41533668 0.28157017 -1.99146056
C 3.06450825 -0.43876377 -1.60403749
O 1.14392751 -1.83603187 -1.23330359
H 1.70491197 2.08082055 -1.57452514
H 0.65033515 2.44623676 -0.21219457
H 2.27764860 1.83570513 0.09138666
H -2.00126678 -0.38048237 2.92150749
H -3.68201919 -0.05689825 -1.04206908
H 3.08353590 0.25034407 -2.44839725
H 3.66820415 -0.03592756 -0.79047724
H -3.98974419 -0.39789437 1.41151355
H 3.52444960 -1.37378801 -1.92665915
