22

C 1.988527236016 0.243295791822 0.006905963084
N 0.858909742357 0.087803611021 -0.767485188405
C -0.421120613038 -0.063207760831 -0.132383296041
C -1.093395265145 -1.281452231269 -0.210351603858
C 0.909567534116 0.078705533261 -2.231873661556
C -0.993705446322 1.007162210159 0.551401056787
C -2.349916552219 -1.421893024623 0.374343417388
C -2.926054470116 -0.351468192426 1.054758402438
C -2.242694217722 0.860143406041 1.147198757212
H -0.626382160402 -2.113335294922 -0.720342685286
H -0.450504138720 1.937951554501 0.626452537406
C 3.280037331971 0.507614654110 -0.728151526010
O 1.945111556135 0.198188951666 1.247940395820
H -0.101861157279 -0.046952497400 -2.608074547958
H 1.302935156699 1.018409439325 -2.625228540412
H 1.520324559749 -0.742108303523 -2.612862705122
H -2.870194792539 -2.367731504944 0.310104608766
H -2.681639626851 1.690081487522 1.683714366529
H 3.528791752770 -0.292408384628 -1.427442606524
H 3.228422969402 1.439697620829 -1.294555897095
H -3.897602291657 -0.462384919086 1.516417996231
H 4.069845021027 0.587365150545 0.011968715864
