22

C 1.95572651 -0.68458117 -0.34769853
N 0.93390144 0.28523928 -0.62960918
C -0.40866434 0.22378591 -0.02560673
C -0.74896614 -0.69125472 1.01654175
C 1.27014236 1.54712828 -1.36398034
C -1.45645972 1.08063619 -0.49348100
C -2.04002909 -0.73044701 1.56030650
C -3.03953082 0.12549054 1.09241113
C -2.74150228 1.02531746 0.06681275
H -0.00876164 -1.37748194 1.41627368
H -1.29363894 1.79388597 -1.30261514
C 3.34866347 -0.45756426 -0.94998681
O 1.77726673 -1.68167114 0.35160667
H 0.81698969 1.53219160 -2.35645556
H 0.90184188 2.41623823 -0.81622213
H 2.33779179 1.70573028 -1.49134825
H -2.26064582 -1.43894478 2.36081308
H -3.51553730 1.69702258 -0.30978782
H 3.29772715 -0.28770017 -2.02597547
H 3.85498007 0.37479754 -0.46034816
H -4.04241637 0.08998549 1.52204397
H 3.95776938 -1.34863517 -0.79086541
