22

C 1.999703028935 -0.149907218585 -0.029591197860
N 0.857935976358 0.030318936190 -0.780360569249
C -0.420150929667 0.024528361593 -0.120846904264
C -1.044289392405 -1.183052559057 0.181896910239
C 0.875854028543 0.400283867926 -2.196532590734
C -1.047491689557 1.231401334381 0.179698572108
C -2.297243281654 -1.182021211639 0.788461673054
C -2.930750701272 0.024061029471 1.084677381729
C -2.304508659566 1.230786751327 0.779644748505
H -0.536886961808 -2.109764997875 -0.044938822072
H -0.544421903241 2.162147877639 -0.045540407613
C 3.319757575435 -0.023526806352 -0.751019811245
O 1.946044159665 -0.406494946062 1.184566025571
H -0.077005320932 0.117216068613 -2.639640633658
H 1.018809735947 1.475869163032 -2.341644074138
H 1.663758848410 -0.131151732100 -2.727740901320
H -2.776723380137 -2.120223326690 1.031847569372
H -2.787959235607 2.168831276011 1.015767596333
H 3.453756429356 -0.823678438934 -1.481818346696
H 3.408473895054 0.929166005096 -1.275272460715
H -3.904307852916 0.023101546644 1.555374434132
H 4.107722434514 -0.097336864947 -0.008168857933
