
 OpenBabel06082209483D

 74 78  0  0  0  0  0  0  0  0999 V2000
   -7.9193   -2.1505   -3.3558 C   0  0  0  0  0  0  0  0  0  0  0  0
   -7.2914   -1.8338   -2.1344 O   0  0  0  0  0  0  0  0  0  0  0  0
   -7.7672   -2.3995   -0.9376 C   0  0  0  0  0  0  0  0  0  0  0  0
   -8.7535   -3.1730   -1.0588 O   0  0  0  0  0  0  0  0  0  0  0  0
   -7.1386   -2.0908    0.3340 C   0  0  0  0  0  0  0  0  0  0  0  0
   -7.5374   -2.6492    1.5388 C   0  0  0  0  0  0  0  0  0  0  0  0
   -6.8732   -2.2736    2.7006 C   0  0  0  0  0  0  0  0  0  0  0  0
   -5.8289   -1.3656    2.6934 C   0  0  0  0  0  0  0  0  0  0  0  0
   -5.4151   -0.7972    1.4738 C   0  0  0  0  0  0  0  0  0  0  0  0
   -6.0920   -1.1847    0.3440 C   0  0  0  0  0  0  0  0  0  0  0  0
   -4.3350    0.1343    1.7337 C   0  0  0  0  0  0  0  0  0  0  0  0
   -3.5715    0.7790    0.8382 C   0  0  0  0  0  0  0  0  0  0  0  0
   -2.5934    1.6570    1.3421 N   0  0  0  0  0  0  0  0  0  0  0  0
   -1.2310    1.7306    0.9772 C   0  0  0  0  0  0  0  0  0  0  0  0
   -0.5001    2.8595    1.4115 C   0  0  0  0  0  0  0  0  0  0  0  0
    0.8243    3.0135    1.0908 C   0  0  0  0  0  0  0  0  0  0  0  0
    1.5310    2.0997    0.3376 C   0  0  0  0  0  0  0  0  0  0  0  0
    2.8973    2.3012    0.0061 N   0  0  0  0  0  0  0  0  0  0  0  0
    3.4245    3.6102   -0.3448 C   0  0  0  0  0  0  0  0  0  0  0  0
    3.8199    1.2210   -0.0065 C   0  0  0  0  0  0  0  0  0  0  0  0
    3.4085    0.0832    0.3201 O   0  0  0  0  0  0  0  0  0  0  0  0
    5.2382    1.3843   -0.3865 C   0  0  0  0  0  0  0  0  0  0  0  0
    6.0105    0.1888   -0.3507 N   0  0  0  0  0  0  0  0  0  0  0  0
    7.3540    0.5256   -0.7774 C   0  0  0  0  0  0  0  0  0  0  0  0
    8.1994   -0.7163   -0.6994 C   0  0  0  0  0  0  0  0  0  0  0  0
    8.4254   -1.0555    0.6908 N   0  3  2  0  0  0  0  0  0  0  0  0
    8.5931   -2.4836    0.9046 C   0  0  0  0  0  0  0  0  0  0  0  0
    7.3943   -0.5400    1.5520 C   0  0  0  0  0  0  0  0  0  0  0  0
    6.0163   -0.5297    0.8787 C   0  0  0  0  0  0  0  0  0  0  0  0
    0.8237    0.9980   -0.0861 C   0  0  0  0  0  0  0  0  0  0  0  0
   -0.5228    0.8339    0.2352 C   0  0  0  0  0  0  0  0  0  0  0  0
   -3.6381    0.5062   -0.5685 C   0  0  0  0  0  0  0  0  0  0  0  0
   -3.8252    1.5064   -1.4845 C   0  0  0  0  0  0  0  0  0  0  0  0
   -3.8183    1.2510   -2.8310 C   0  0  0  0  0  0  0  0  0  0  0  0
   -3.6211   -0.0277   -3.3173 C   0  0  0  0  0  0  0  0  0  0  0  0
   -3.4313   -1.0311   -2.3929 C   0  0  0  0  0  0  0  0  0  0  0  0
   -3.4366   -0.7866   -1.0384 C   0  0  0  0  0  0  0  0  0  0  0  0
   -4.1054    0.1204    3.1834 C   0  0  0  0  0  0  0  0  0  0  0  0
   -3.2488    0.8075    3.7704 O   0  0  0  0  0  0  0  0  0  0  0  0
   -5.0351   -0.8050    3.7136 N   0  0  0  0  0  0  0  0  0  0  0  0
   -7.1258   -2.2963   -4.1191 H   0  0  0  0  0  0  0  0  0  0  0  0
   -8.4176   -3.1303   -3.2352 H   0  0  0  0  0  0  0  0  0  0  0  0
   -8.6270   -1.3410   -3.6549 H   0  0  0  0  0  0  0  0  0  0  0  0
   -8.3474   -3.3561    1.5675 H   0  0  0  0  0  0  0  0  0  0  0  0
   -7.1923   -2.7066    3.6397 H   0  0  0  0  0  0  0  0  0  0  0  0
   -5.8424   -0.6993   -0.6042 H   0  0  0  0  0  0  0  0  0  0  0  0
   -2.9685    2.3497    2.0948 H   0  0  0  0  0  0  0  0  0  0  0  0
   -1.0061    3.6040    2.0046 H   0  0  0  0  0  0  0  0  0  0  0  0
    1.3968    3.8953    1.4347 H   0  0  0  0  0  0  0  0  0  0  0  0
    3.9212    3.5257   -1.3291 H   0  0  0  0  0  0  0  0  0  0  0  0
    2.6404    4.3831   -0.4586 H   0  0  0  0  0  0  0  0  0  0  0  0
    4.1693    3.9005    0.4231 H   0  0  0  0  0  0  0  0  0  0  0  0
    5.6565    2.2075    0.2436 H   0  0  0  0  0  0  0  0  0  0  0  0
    5.2633    1.7572   -1.4536 H   0  0  0  0  0  0  0  0  0  0  0  0
    7.2670    0.8089   -1.8518 H   0  0  0  0  0  0  0  0  0  0  0  0
    7.7621    1.3832   -0.1951 H   0  0  0  0  0  0  0  0  0  0  0  0
    7.6692   -1.5310   -1.1899 H   0  0  0  0  0  0  0  0  0  0  0  0
    9.1563   -0.5325   -1.2514 H   0  0  0  0  0  0  0  0  0  0  0  0
    9.3134   -0.5540    0.9589 H   0  0  0  0  0  0  0  0  0  0  0  0
    8.8109   -2.9967   -0.0733 H   0  0  0  0  0  0  0  0  0  0  0  0
    7.6012   -2.8940    1.2203 H   0  0  0  0  0  0  0  0  0  0  0  0
    9.3517   -2.6657    1.6690 H   0  0  0  0  0  0  0  0  0  0  0  0
    7.3029   -1.2663    2.4071 H   0  0  0  0  0  0  0  0  0  0  0  0
    7.6384    0.4407    1.9888 H   0  0  0  0  0  0  0  0  0  0  0  0
    5.3255   -0.1613    1.6356 H   0  0  0  0  0  0  0  0  0  0  0  0
    5.7645   -1.6056    0.6867 H   0  0  0  0  0  0  0  0  0  0  0  0
    1.3424    0.2407   -0.6885 H   0  0  0  0  0  0  0  0  0  0  0  0
   -1.0173   -0.0471   -0.1035 H   0  0  0  0  0  0  0  0  0  0  0  0
   -3.9858    2.5192   -1.1343 H   0  0  0  0  0  0  0  0  0  0  0  0
   -3.9646    2.0308   -3.5931 H   0  0  0  0  0  0  0  0  0  0  0  0
   -3.6109   -0.2424   -4.4001 H   0  0  0  0  0  0  0  0  0  0  0  0
   -3.2729   -2.0736   -2.7402 H   0  0  0  0  0  0  0  0  0  0  0  0
   -3.2788   -1.6146   -0.3228 H   0  0  0  0  0  0  0  0  0  0  0  0
   -5.1255   -1.0503    4.7437 H   0  0  0  0  0  0  0  0  0  0  0  0
  1  2  1  0  0  0  0
  1 41  1  0  0  0  0
  1 42  1  0  0  0  0
  1 43  1  0  0  0  0
  2  3  1  0  0  0  0
  3  4  2  0  0  0  0
  3  5  1  0  0  0  0
  5  6  2  0  0  0  0
  6  7  1  0  0  0  0
  6 44  1  0  0  0  0
  7  8  2  0  0  0  0
  7 45  1  0  0  0  0
  8  9  1  0  0  0  0
  9 10  2  0  0  0  0
  9 11  1  0  0  0  0
 10  5  1  0  0  0  0
 10 46  1  0  0  0  0
 11 12  2  0  0  0  0
 11 38  1  0  0  0  0
 12 13  1  0  0  0  0
 12 32  1  0  0  0  0
 13 14  1  0  0  0  0
 13 47  1  0  0  0  0
 14 15  2  0  0  0  0
 15 16  1  0  0  0  0
 15 48  1  0  0  0  0
 16 17  2  0  0  0  0
 16 49  1  0  0  0  0
 17 18  1  0  0  0  0
 17 30  1  0  0  0  0
 18 19  1  0  0  0  0
 18 20  1  0  0  0  0
 19 50  1  0  0  0  0
 19 51  1  0  0  0  0
 19 52  1  0  0  0  0
 20 21  2  0  0  0  0
 20 22  1  0  0  0  0
 22 23  1  0  0  0  0
 22 53  1  0  0  0  0
 22 54  1  0  0  0  0
 23 24  1  0  0  0  0
 24 25  1  0  0  0  0
 24 55  1  0  0  0  0
 24 56  1  0  0  0  0
 25 26  1  0  0  0  0
 25 57  1  0  0  0  0
 25 58  1  0  0  0  0
 26 27  1  0  0  0  0
 26 28  1  0  0  0  0
 26 59  1  1  0  0  0
 27 60  1  0  0  0  0
 27 61  1  0  0  0  0
 27 62  1  0  0  0  0
 28 29  1  0  0  0  0
 28 63  1  0  0  0  0
 28 64  1  0  0  0  0
 29 23  1  0  0  0  0
 29 65  1  0  0  0  0
 29 66  1  0  0  0  0
 30 31  2  0  0  0  0
 30 67  1  0  0  0  0
 31 14  1  0  0  0  0
 31 68  1  0  0  0  0
 32 33  2  0  0  0  0
 33 34  1  0  0  0  0
 33 69  1  0  0  0  0
 34 35  2  0  0  0  0
 34 70  1  0  0  0  0
 35 36  1  0  0  0  0
 35 71  1  0  0  0  0
 36 37  2  0  0  0  0
 36 72  1  0  0  0  0
 37 32  1  0  0  0  0
 37 73  1  0  0  0  0
 38 39  2  0  0  0  0
 38 40  1  0  0  0  0
 40  8  1  0  0  0  0
 40 74  1  0  0  0  0
M  CHG  1  26   1
M  END
$$$$
