
 OpenBabel06082209483D

 73 77  0  0  0  0  0  0  0  0999 V2000
    9.3140    2.5221   -2.4071 C   0  0  0  0  0  0  0  0  0  0  0  0
    8.5745    2.3440   -1.2320 O   0  0  0  0  0  0  0  0  0  0  0  0
    7.4555    1.6130   -1.0241 C   0  0  0  0  0  0  0  0  0  0  0  0
    6.9912    0.9820   -2.0388 O   0  0  0  0  0  0  0  0  0  0  0  0
    6.7386    1.4820    0.2359 C   0  0  0  0  0  0  0  0  0  0  0  0
    7.1721    2.1203    1.3782 C   0  0  0  0  0  0  0  0  0  0  0  0
    6.4879    1.9959    2.5677 C   0  0  0  0  0  0  0  0  0  0  0  0
    5.3425    1.2369    2.6854 C   0  0  0  0  0  0  0  0  0  0  0  0
    4.8840    0.5844    1.5387 C   0  0  0  0  0  0  0  0  0  0  0  0
    5.5880    0.7156    0.3424 C   0  0  0  0  0  0  0  0  0  0  0  0
    3.7007   -0.1708    1.8890 C   0  0  0  0  0  0  0  0  0  0  0  0
    2.8682   -0.8135    1.1002 C   0  0  0  0  0  0  0  0  0  0  0  0
    1.7510   -1.5323    1.6809 N   0  0  0  0  0  0  0  0  0  0  0  0
    0.4588   -1.5617    1.1314 C   0  0  0  0  0  0  0  0  0  0  0  0
   -0.0916   -0.5589    0.3772 C   0  0  0  0  0  0  0  0  0  0  0  0
   -1.3418   -0.7533   -0.1843 C   0  0  0  0  0  0  0  0  0  0  0  0
   -2.0592   -1.8957   -0.0254 C   0  0  0  0  0  0  0  0  0  0  0  0
   -3.2982   -2.1154   -0.6476 N   0  0  0  0  0  0  0  0  0  0  0  0
   -3.3476   -3.1753   -1.6745 C   0  0  0  0  0  0  0  0  0  0  0  0
   -4.4613   -1.3933   -0.3529 C   0  0  0  0  0  0  0  0  0  0  0  0
   -5.5102   -1.7189   -1.0213 O   0  0  0  0  0  0  0  0  0  0  0  0
   -4.5162   -0.3219    0.6529 C   0  0  0  0  0  0  0  0  0  0  0  0
   -5.8805    0.2136    0.6639 N   0  0  0  0  0  0  0  0  0  0  0  0
   -6.0130    1.1445    1.8119 C   0  0  0  0  0  0  0  0  0  0  0  0
   -7.5103    1.2610    2.0279 C   0  0  0  0  0  0  0  0  0  0  0  0
   -8.2069    1.2175    0.7292 N   0  0  0  0  0  0  0  0  0  0  0  0
   -8.5564   -0.1385    0.3753 C   0  0  0  0  0  0  0  0  0  0  0  0
   -7.3654    1.8360   -0.2805 C   0  0  0  0  0  0  0  0  0  0  0  0
   -6.1023    1.0026   -0.5518 C   0  0  0  0  0  0  0  0  0  0  0  0
   -1.4864   -2.8968    0.7446 C   0  0  0  0  0  0  0  0  0  0  0  0
   -0.2695   -2.7471    1.3096 C   0  0  0  0  0  0  0  0  0  0  0  0
    2.9557   -0.6962   -0.3383 C   0  0  0  0  0  0  0  0  0  0  0  0
    2.9182    0.5165   -0.9950 C   0  0  0  0  0  0  0  0  0  0  0  0
    2.9865    0.6088   -2.3716 C   0  0  0  0  0  0  0  0  0  0  0  0
    3.0961   -0.5500   -3.1044 C   0  0  0  0  0  0  0  0  0  0  0  0
    3.1363   -1.7733   -2.4803 C   0  0  0  0  0  0  0  0  0  0  0  0
    3.0650   -1.8330   -1.0992 C   0  0  0  0  0  0  0  0  0  0  0  0
    3.4754    0.0628    3.3399 C   0  0  0  0  0  0  0  0  0  0  0  0
    2.5263   -0.4468    4.0010 O   0  0  0  0  0  0  0  0  0  0  0  0
    4.4938    0.9262    3.7937 N   0  0  0  0  0  0  0  0  0  0  0  0
    8.7051    2.3373   -3.3308 H   0  0  0  0  0  0  0  0  0  0  0  0
   10.2550    1.9489   -2.4602 H   0  0  0  0  0  0  0  0  0  0  0  0
    9.6346    3.6056   -2.4310 H   0  0  0  0  0  0  0  0  0  0  0  0
    8.0683    2.7202    1.3095 H   0  0  0  0  0  0  0  0  0  0  0  0
    6.8460    2.5052    3.4762 H   0  0  0  0  0  0  0  0  0  0  0  0
    5.3247    0.1906   -0.5600 H   0  0  0  0  0  0  0  0  0  0  0  0
    1.9410   -2.0640    2.5520 H   0  0  0  0  0  0  0  0  0  0  0  0
    0.4305    0.3735    0.2383 H   0  0  0  0  0  0  0  0  0  0  0  0
   -1.7289    0.0866   -0.7744 H   0  0  0  0  0  0  0  0  0  0  0  0
   -2.4205   -3.2247   -2.2446 H   0  0  0  0  0  0  0  0  0  0  0  0
   -4.2336   -3.0283   -2.3064 H   0  0  0  0  0  0  0  0  0  0  0  0
   -3.4579   -4.1202   -1.1010 H   0  0  0  0  0  0  0  0  0  0  0  0
   -4.2143   -0.6650    1.6576 H   0  0  0  0  0  0  0  0  0  0  0  0
   -3.8767    0.5373    0.3030 H   0  0  0  0  0  0  0  0  0  0  0  0
   -5.5599    0.6415    2.6633 H   0  0  0  0  0  0  0  0  0  0  0  0
   -5.5690    2.0882    1.4980 H   0  0  0  0  0  0  0  0  0  0  0  0
   -7.9097    0.4039    2.5901 H   0  0  0  0  0  0  0  0  0  0  0  0
   -7.7107    2.2229    2.4957 H   0  0  0  0  0  0  0  0  0  0  0  0
   -8.0675   -0.4498   -0.5741 H   0  0  0  0  0  0  0  0  0  0  0  0
   -8.2148   -0.8499    1.1504 H   0  0  0  0  0  0  0  0  0  0  0  0
   -9.6530   -0.2154    0.1872 H   0  0  0  0  0  0  0  0  0  0  0  0
   -7.1154    2.8563    0.0798 H   0  0  0  0  0  0  0  0  0  0  0  0
   -7.9527    1.9063   -1.2317 H   0  0  0  0  0  0  0  0  0  0  0  0
   -5.2190    1.6541   -0.7083 H   0  0  0  0  0  0  0  0  0  0  0  0
   -6.3008    0.3337   -1.3764 H   0  0  0  0  0  0  0  0  0  0  0  0
   -2.0366   -3.8240    0.8949 H   0  0  0  0  0  0  0  0  0  0  0  0
    0.1712   -3.5333    1.9086 H   0  0  0  0  0  0  0  0  0  0  0  0
    2.8342    1.4028   -0.3737 H   0  0  0  0  0  0  0  0  0  0  0  0
    2.9494    1.5954   -2.8263 H   0  0  0  0  0  0  0  0  0  0  0  0
    3.1490   -0.5052   -4.1804 H   0  0  0  0  0  0  0  0  0  0  0  0
    3.2219   -2.7105   -3.0409 H   0  0  0  0  0  0  0  0  0  0  0  0
    3.0997   -2.8124   -0.6502 H   0  0  0  0  0  0  0  0  0  0  0  0
    4.6466    1.2993    4.7561 H   0  0  0  0  0  0  0  0  0  0  0  0
  1  2  1  0  0  0  0
  1 41  1  0  0  0  0
  1 42  1  0  0  0  0
  1 43  1  0  0  0  0
  2  3  1  0  0  0  0
  3  4  2  0  0  0  0
  3  5  1  0  0  0  0
  5  6  2  0  0  0  0
  6  7  1  0  0  0  0
  6 44  1  0  0  0  0
  7  8  2  0  0  0  0
  7 45  1  0  0  0  0
  8  9  1  0  0  0  0
  9 10  2  0  0  0  0
  9 11  1  0  0  0  0
 10  5  1  0  0  0  0
 10 46  1  0  0  0  0
 11 12  2  0  0  0  0
 11 38  1  0  0  0  0
 12 13  1  0  0  0  0
 12 32  1  0  0  0  0
 13 14  1  0  0  0  0
 13 47  1  0  0  0  0
 14 15  2  0  0  0  0
 15 16  1  0  0  0  0
 15 48  1  0  0  0  0
 16 17  2  0  0  0  0
 16 49  1  0  0  0  0
 17 18  1  0  0  0  0
 17 30  1  0  0  0  0
 18 19  1  0  0  0  0
 18 20  1  0  0  0  0
 19 50  1  0  0  0  0
 19 51  1  0  0  0  0
 19 52  1  0  0  0  0
 20 21  2  0  0  0  0
 20 22  1  0  0  0  0
 22 23  1  0  0  0  0
 22 53  1  0  0  0  0
 22 54  1  0  0  0  0
 23 24  1  0  0  0  0
 24 25  1  0  0  0  0
 24 55  1  0  0  0  0
 24 56  1  0  0  0  0
 25 26  1  0  0  0  0
 25 57  1  0  0  0  0
 25 58  1  0  0  0  0
 26 27  1  0  0  0  0
 26 28  1  0  0  0  0
 27 59  1  0  0  0  0
 27 60  1  0  0  0  0
 27 61  1  0  0  0  0
 28 29  1  0  0  0  0
 28 62  1  0  0  0  0
 28 63  1  0  0  0  0
 29 23  1  0  0  0  0
 29 64  1  0  0  0  0
 29 65  1  0  0  0  0
 30 31  2  0  0  0  0
 30 66  1  0  0  0  0
 31 14  1  0  0  0  0
 31 67  1  0  0  0  0
 32 33  2  0  0  0  0
 33 34  1  0  0  0  0
 33 68  1  0  0  0  0
 34 35  2  0  0  0  0
 34 69  1  0  0  0  0
 35 36  1  0  0  0  0
 35 70  1  0  0  0  0
 36 37  2  0  0  0  0
 36 71  1  0  0  0  0
 37 32  1  0  0  0  0
 37 72  1  0  0  0  0
 38 39  2  0  0  0  0
 38 40  1  0  0  0  0
 40  8  1  0  0  0  0
 40 73  1  0  0  0  0
M  END
$$$$
