
     RDKit          3D

 74 78  0  0  0  0  0  0  0  0999 V2000
    4.2876    0.6169    4.1129 C   0  0  0  0  0  0  0  0  0  0  0  0
    4.1482    1.3158    2.9363 C   0  0  0  0  0  0  0  0  0  0  0  0
    3.6717    0.7238    1.7916 C   0  0  0  0  0  0  0  0  0  0  0  0
    3.3096   -0.6141    1.7790 C   0  0  0  0  0  0  0  0  0  0  0  0
    2.8104   -1.2305    0.5785 C   0  0  0  0  0  0  0  0  0  0  0  0
    3.4191   -1.4220   -0.5386 C   0  0  0  0  0  0  0  0  0  0  0  0
    2.8092   -2.0661   -1.7445 C   0  0  0  0  0  0  0  0  0  0  0  0
    1.4955   -2.5026   -1.8317 O   0  0  0  0  0  0  0  0  0  0  0  0
    3.7019   -2.1368   -2.6551 N   0  0  0  0  0  0  0  0  0  0  0  0
    4.9242   -1.6026   -2.2324 C   0  0  0  0  0  0  0  0  0  0  0  0
    6.1642   -1.4728   -2.8494 C   0  0  0  0  0  0  0  0  0  0  0  0
    7.2484   -0.9175   -2.2081 C   0  0  0  0  0  0  0  0  0  0  0  0
    7.1232   -0.4729   -0.9206 C   0  0  0  0  0  0  0  0  0  0  0  0
    8.2007    0.1242   -0.1589 C   0  0  0  0  0  0  0  0  0  0  0  0
    8.0355    0.5148    1.0216 O   0  0  0  0  0  0  0  0  0  0  0  0
    9.4653    0.2937   -0.6952 O   0  0  0  0  0  0  0  0  0  0  0  0
   10.5271    0.8770    0.0414 C   0  0  0  0  0  0  0  0  0  0  0  0
    5.8914   -0.6015   -0.3075 C   0  0  0  0  0  0  0  0  0  0  0  0
    4.7868   -1.1555   -0.9368 C   0  0  0  0  0  0  0  0  0  0  0  0
    1.4361   -1.6889    0.6866 N   0  0  0  0  0  0  0  0  0  0  0  0
    0.3462   -0.8481    0.3753 C   0  0  0  0  0  0  0  0  0  0  0  0
    0.5471    0.4259   -0.1010 C   0  0  0  0  0  0  0  0  0  0  0  0
   -0.5392    1.2336   -0.3876 C   0  0  0  0  0  0  0  0  0  0  0  0
   -1.8364    0.7944   -0.2082 C   0  0  0  0  0  0  0  0  0  0  0  0
   -2.9614    1.6176   -0.4951 N   0  0  0  0  0  0  0  0  0  0  0  0
   -3.6302    1.6510   -1.7391 C   0  0  0  0  0  0  0  0  0  0  0  0
   -2.8616    2.0955   -2.8257 O   0  0  0  0  0  0  0  0  0  0  0  0
   -4.8679    1.3128   -1.9571 C   0  0  0  0  0  0  0  0  0  0  0  0
   -5.7895    0.8413   -0.9752 N   0  0  0  0  0  0  0  0  0  0  0  0
   -5.6920   -0.5652   -0.6340 C   0  0  0  0  0  0  0  0  0  0  0  0
   -7.1260   -1.1089   -0.7197 C   0  0  0  0  0  0  0  0  0  0  0  0
   -7.8247   -0.4309    0.3757 N   0  0  0  0  0  4  0  0  0  0  0  0
   -9.1205   -1.0545    0.5187 C   0  0  0  0  0  0  0  0  0  0  0  0
   -8.0295    0.9671    0.0746 C   0  0  0  0  0  0  0  0  0  0  0  0
   -6.7648    1.6661   -0.3443 C   0  0  0  0  0  0  0  0  0  0  0  0
   -3.4427    2.4775    0.5714 C   0  0  0  0  0  0  0  0  0  0  0  0
   -2.0338   -0.4726    0.2649 C   0  0  0  0  0  0  0  0  0  0  0  0
   -0.9410   -1.2772    0.5504 C   0  0  0  0  0  0  0  0  0  0  0  0
    3.4516   -1.3185    2.9709 C   0  0  0  0  0  0  0  0  0  0  0  0
    3.9285   -0.7134    4.1036 C   0  0  0  0  0  0  0  0  0  0  0  0
    4.6646    1.0972    5.0076 H   0  0  0  0  0  0  0  0  0  0  0  0
    4.4199    2.3563    2.9087 H   0  0  0  0  0  0  0  0  0  0  0  0
    3.5756    1.3102    0.8767 H   0  0  0  0  0  0  0  0  0  0  0  0
    1.2703   -3.1794   -2.5671 H   0  0  0  0  0  0  0  0  0  0  0  0
    6.2579   -1.8338   -3.8849 H   0  0  0  0  0  0  0  0  0  0  0  0
    8.2115   -0.8180   -2.6908 H   0  0  0  0  0  0  0  0  0  0  0  0
   11.3116    1.1885   -0.6468 H   0  0  0  0  0  0  0  0  0  0  0  0
   10.9128    0.1350    0.7584 H   0  0  0  0  0  0  0  0  0  0  0  0
   10.1253    1.7308    0.6496 H   0  0  0  0  0  0  0  0  0  0  0  0
    5.7930   -0.2845    0.7022 H   0  0  0  0  0  0  0  0  0  0  0  0
    1.2471   -2.6619    1.0022 H   0  0  0  0  0  0  0  0  0  0  0  0
    1.5327    0.7961   -0.2515 H   0  0  0  0  0  0  0  0  0  0  0  0
   -0.3816    2.2303   -0.7601 H   0  0  0  0  0  0  0  0  0  0  0  0
   -2.9446    3.0327   -3.1819 H   0  0  0  0  0  0  0  0  0  0  0  0
   -5.2913    1.3766   -2.9659 H   0  0  0  0  0  0  0  0  0  0  0  0
   -5.0083   -1.1297   -1.2838 H   0  0  0  0  0  0  0  0  0  0  0  0
   -5.4156   -0.6367    0.4431 H   0  0  0  0  0  0  0  0  0  0  0  0
   -7.5134   -0.8138   -1.6975 H   0  0  0  0  0  0  0  0  0  0  0  0
   -7.1268   -2.1749   -0.4978 H   0  0  0  0  0  0  0  0  0  0  0  0
   -7.2855   -0.6015    1.2276 H   0  0  0  0  0  0  0  0  0  0  0  0
   -9.0937   -2.1247    0.2428 H   0  0  0  0  0  0  0  0  0  0  0  0
   -9.5207   -0.8807    1.5384 H   0  0  0  0  0  0  0  0  0  0  0  0
   -9.8246   -0.5638   -0.1835 H   0  0  0  0  0  0  0  0  0  0  0  0
   -8.3731    1.4523    1.0216 H   0  0  0  0  0  0  0  0  0  0  0  0
   -8.8623    1.0828   -0.6480 H   0  0  0  0  0  0  0  0  0  0  0  0
   -6.3126    2.2540    0.4799 H   0  0  0  0  0  0  0  0  0  0  0  0
   -7.0821    2.4426   -1.1024 H   0  0  0  0  0  0  0  0  0  0  0  0
   -4.0627    3.2954    0.1384 H   0  0  0  0  0  0  0  0  0  0  0  0
   -4.0264    1.8555    1.2707 H   0  0  0  0  0  0  0  0  0  0  0  0
   -2.5462    2.9479    1.0628 H   0  0  0  0  0  0  0  0  0  0  0  0
   -3.0176   -0.8761    0.4270 H   0  0  0  0  0  0  0  0  0  0  0  0
   -1.1345   -2.2700    0.9216 H   0  0  0  0  0  0  0  0  0  0  0  0
    3.1846   -2.3586    3.0140 H   0  0  0  0  0  0  0  0  0  0  0  0
    4.0485   -1.2520    5.0565 H   0  0  0  0  0  0  0  0  0  0  0  0
  1  2  2  0
  2  3  1  0
  3  4  2  0
  4  5  1  0
  5  6  2  3
  6  7  1  0
  7  8  1  0
  7  9  2  0
  9 10  1  0
 10 11  2  0
 11 12  1  0
 12 13  2  0
 13 14  1  0
 14 15  2  0
 14 16  1  0
 16 17  1  0
 13 18  1  0
 18 19  2  0
  5 20  1  0
 20 21  1  0
 21 22  2  0
 22 23  1  0
 23 24  2  0
 24 25  1  0
 25 26  1  0
 26 27  1  0
 26 28  2  3
 28 29  1  0
 29 30  1  0
 30 31  1  0
 31 32  1  0
 32 33  1  0
 32 34  1  0
 34 35  1  0
 25 36  1  0
 24 37  1  0
 37 38  2  0
  4 39  1  0
 39 40  2  0
 40  1  1  0
 19  6  1  0
 38 21  1  0
 19 10  1  0
 35 29  1  0
  1 41  1  0
  2 42  1  0
  3 43  1  0
  8 44  1  0
 11 45  1  0
 12 46  1  0
 17 47  1  0
 17 48  1  0
 17 49  1  0
 18 50  1  0
 20 51  1  0
 22 52  1  0
 23 53  1  0
 27 54  1  0
 28 55  1  0
 30 56  1  0
 30 57  1  0
 31 58  1  0
 31 59  1  0
 32 60  1  0
 33 61  1  0
 33 62  1  0
 33 63  1  0
 34 64  1  0
 34 65  1  0
 35 66  1  0
 35 67  1  0
 36 68  1  0
 36 69  1  0
 36 70  1  0
 37 71  1  0
 38 72  1  0
 39 73  1  0
 40 74  1  0
M  CHG  1  32   1
M  END
