
 OpenBabel06082209483D

 74 78  0  0  0  0  0  0  0  0999 V2000
    2.8186   -5.7627   -0.1039 C   0  0  0  0  0  0  0  0  0  0  0  0
    2.8189   -4.8994    0.9773 C   0  0  0  0  0  0  0  0  0  0  0  0
    3.1888   -3.6025    0.8149 C   0  0  0  0  0  0  0  0  0  0  0  0
    3.5823   -3.0912   -0.4426 C   0  0  0  0  0  0  0  0  0  0  0  0
    3.8886   -1.6671   -0.5214 C   0  0  0  0  0  0  0  0  0  0  0  0
    5.1956   -1.1904   -1.0477 C   0  0  0  0  0  0  0  0  0  0  0  0
    6.2544   -1.9562   -1.6616 C   0  0  0  0  0  0  0  0  0  0  0  0
    6.3371   -3.1962   -1.8640 O   0  0  0  0  0  0  0  0  0  0  0  0
    7.2456   -0.9912   -2.0128 N   0  0  0  0  0  0  0  0  0  0  0  0
    6.8009    0.1760   -1.6403 C   0  0  0  0  0  0  0  0  0  0  0  0
    7.4085    1.4048   -1.7796 C   0  0  0  0  0  0  0  0  0  0  0  0
    6.7520    2.5986   -1.3091 C   0  0  0  0  0  0  0  0  0  0  0  0
    5.5631    2.4131   -0.7527 C   0  0  0  0  0  0  0  0  0  0  0  0
    4.8351    3.7946   -0.0436 C   0  0  1  0  0  0  0  0  0  0  0  0
    4.6331    3.0003    1.3671 O   0  0  0  0  0  0  0  0  0  0  0  0
    5.9939    4.2905    0.3525 O   0  0  0  0  0  0  0  0  0  0  0  0
    6.4096    4.1626    1.6449 C   0  0  0  0  0  0  0  0  0  0  0  0
    4.9347    1.2552   -0.5955 C   0  0  0  0  0  0  0  0  0  0  0  0
    5.5619    0.0720   -1.0510 C   0  0  0  0  0  0  0  0  0  0  0  0
    3.0202   -0.8339   -0.2685 N   0  0  0  0  0  0  0  0  0  0  0  0
    1.7275   -0.6558    0.0917 C   0  0  0  0  0  0  0  0  0  0  0  0
    0.9301   -0.0642   -0.9536 C   0  0  0  0  0  0  0  0  0  0  0  0
   -0.3755    0.1795   -0.7973 C   0  0  0  0  0  0  0  0  0  0  0  0
   -0.9790   -0.1428    0.3887 C   0  0  0  0  0  0  0  0  0  0  0  0
   -2.3934    0.1867    0.4747 N   0  0  0  0  0  0  0  0  0  0  0  0
   -3.1753   -0.1565   -0.6353 C   0  0  0  0  0  0  0  0  0  0  0  0
   -2.6048   -0.8690   -1.5836 O   0  0  0  0  0  0  0  0  0  0  0  0
   -4.5579    0.1431   -0.9606 C   0  0  0  0  0  0  0  0  0  0  0  0
   -5.3966    0.8334   -0.0819 N   0  0  0  0  0  0  0  0  0  0  0  0
   -5.8787    0.1799    1.0732 C   0  0  0  0  0  0  0  0  0  0  0  0
   -7.2434   -0.4791    0.8369 C   0  0  0  0  0  0  0  0  0  0  0  0
   -8.2262    0.3836    0.2717 N   0  3  1  0  0  0  0  0  0  0  0  0
   -9.3711    0.5922    1.1232 C   0  0  0  0  0  0  0  0  0  0  0  0
   -7.7042    1.6931   -0.0589 C   0  0  0  0  0  0  0  0  0  0  0  0
   -6.3962    1.5474   -0.8095 C   0  0  0  0  0  0  0  0  0  0  0  0
   -2.8255    0.8233    1.6683 C   0  0  0  0  0  0  0  0  0  0  0  0
   -0.2570   -0.7068    1.4015 C   0  0  0  0  0  0  0  0  0  0  0  0
    1.1178   -0.9736    1.2715 C   0  0  0  0  0  0  0  0  0  0  0  0
    3.5824   -3.9382   -1.5064 C   0  0  0  0  0  0  0  0  0  0  0  0
    3.1989   -5.2726   -1.3322 C   0  0  0  0  0  0  0  0  0  0  0  0
    2.5316   -6.7990    0.0208 H   0  0  0  0  0  0  0  0  0  0  0  0
    2.5128   -5.3066    1.9375 H   0  0  0  0  0  0  0  0  0  0  0  0
    3.2050   -2.9384    1.6617 H   0  0  0  0  0  0  0  0  0  0  0  0
    8.3556    1.5372   -2.2351 H   0  0  0  0  0  0  0  0  0  0  0  0
    7.2357    3.5482   -1.4314 H   0  0  0  0  0  0  0  0  0  0  0  0
    3.9837    3.4298   -0.3324 H   0  0  0  0  0  0  0  0  0  0  0  0
    3.9299    3.6021    1.7419 H   0  0  0  0  0  0  0  0  0  0  0  0
    6.5006    3.1071    2.0008 H   0  0  0  0  0  0  0  0  0  0  0  0
    5.7265    4.6649    2.3905 H   0  0  0  0  0  0  0  0  0  0  0  0
    7.4215    4.6123    1.8169 H   0  0  0  0  0  0  0  0  0  0  0  0
    3.9810    1.2194   -0.1218 H   0  0  0  0  0  0  0  0  0  0  0  0
    1.4253    0.2032   -1.9068 H   0  0  0  0  0  0  0  0  0  0  0  0
   -0.9838    0.6386   -1.6027 H   0  0  0  0  0  0  0  0  0  0  0  0
   -4.5037    0.7395   -1.9516 H   0  0  0  0  0  0  0  0  0  0  0  0
   -5.0914   -0.7932   -1.3331 H   0  0  0  0  0  0  0  0  0  0  0  0
   -6.0028    0.9234    1.8811 H   0  0  0  0  0  0  0  0  0  0  0  0
   -5.2380   -0.6541    1.4393 H   0  0  0  0  0  0  0  0  0  0  0  0
   -7.5578   -0.8667    1.8437 H   0  0  0  0  0  0  0  0  0  0  0  0
   -7.0744   -1.3636    0.2216 H   0  0  0  0  0  0  0  0  0  0  0  0
   -8.6055   -0.0792   -0.6115 H   0  0  0  0  0  0  0  0  0  0  0  0
   -9.0671    0.5601    2.2012 H   0  0  0  0  0  0  0  0  0  0  0  0
   -9.7590    1.6199    0.9565 H   0  0  0  0  0  0  0  0  0  0  0  0
  -10.1870   -0.1223    0.8914 H   0  0  0  0  0  0  0  0  0  0  0  0
   -7.4583    2.1783    0.9203 H   0  0  0  0  0  0  0  0  0  0  0  0
   -8.3777    2.2796   -0.6838 H   0  0  0  0  0  0  0  0  0  0  0  0
   -6.6365    1.0198   -1.7632 H   0  0  0  0  0  0  0  0  0  0  0  0
   -6.0010    2.5775   -0.9964 H   0  0  0  0  0  0  0  0  0  0  0  0
   -3.2257    0.0798    2.3781 H   0  0  0  0  0  0  0  0  0  0  0  0
   -3.4608    1.6901    1.4698 H   0  0  0  0  0  0  0  0  0  0  0  0
   -1.9376    1.2708    2.2306 H   0  0  0  0  0  0  0  0  0  0  0  0
   -0.7413   -0.9757    2.3306 H   0  0  0  0  0  0  0  0  0  0  0  0
    1.6154   -1.4058    2.1242 H   0  0  0  0  0  0  0  0  0  0  0  0
    3.8494   -3.5753   -2.4880 H   0  0  0  0  0  0  0  0  0  0  0  0
    3.2208   -5.9024   -2.2297 H   0  0  0  0  0  0  0  0  0  0  0  0
  1  2  2  0  0  0  0
  1 41  1  0  0  0  0
  2  3  1  0  0  0  0
  2 42  1  0  0  0  0
  3  4  2  0  0  0  0
  3 43  1  0  0  0  0
  4  5  1  0  0  0  0
  4 39  1  0  0  0  0
  5  6  1  0  0  0  0
  5 20  2  3  0  0  0
  6  7  1  0  0  0  0
  7  8  2  0  0  0  0
  7  9  1  0  0  0  0
  9 10  2  0  0  0  0
 10 11  1  0  0  0  0
 11 12  2  0  0  0  0
 11 44  1  0  0  0  0
 12 13  1  0  0  0  0
 12 45  1  0  0  0  0
 13 14  1  0  0  0  0
 13 18  2  0  0  0  0
 14 15  1  0  0  0  0
 14 16  1  0  0  0  0
 14 46  1  6  0  0  0
 15 47  1  0  0  0  0
 16 17  1  0  0  0  0
 17 48  1  0  0  0  0
 17 49  1  0  0  0  0
 17 50  1  0  0  0  0
 18 19  1  0  0  0  0
 18 51  1  0  0  0  0
 19  6  2  0  0  0  0
 19 10  1  0  0  0  0
 20 21  1  0  0  0  0
 21 22  2  0  0  0  0
 22 23  1  0  0  0  0
 22 52  1  0  0  0  0
 23 24  2  0  0  0  0
 23 53  1  0  0  0  0
 24 25  1  0  0  0  0
 24 37  1  0  0  0  0
 25 26  1  0  0  0  0
 25 36  1  0  0  0  0
 26 27  2  0  0  0  0
 26 28  1  0  0  0  0
 28 29  1  0  0  0  0
 28 54  1  0  0  0  0
 28 55  1  0  0  0  0
 29 30  1  0  0  0  0
 30 31  1  0  0  0  0
 30 56  1  0  0  0  0
 30 57  1  0  0  0  0
 31 32  1  0  0  0  0
 31 58  1  0  0  0  0
 31 59  1  0  0  0  0
 32 33  1  0  0  0  0
 32 34  1  0  0  0  0
 32 60  1  6  0  0  0
 33 61  1  0  0  0  0
 33 62  1  0  0  0  0
 33 63  1  0  0  0  0
 34 35  1  0  0  0  0
 34 64  1  0  0  0  0
 34 65  1  0  0  0  0
 35 29  1  0  0  0  0
 35 66  1  0  0  0  0
 35 67  1  0  0  0  0
 36 68  1  0  0  0  0
 36 69  1  0  0  0  0
 36 70  1  0  0  0  0
 37 38  2  0  0  0  0
 37 71  1  0  0  0  0
 38 21  1  0  0  0  0
 38 72  1  0  0  0  0
 39 40  2  0  0  0  0
 39 73  1  0  0  0  0
 40  1  1  0  0  0  0
 40 74  1  0  0  0  0
M  CHG  1  32   1
M  END
$$$$
