
     RDKit          3D

 74 78  0  0  0  0  0  0  0  0999 V2000
   -3.1199   -5.5785    2.6011 C   0  0  0  0  0  0  0  0  0  0  0  0
   -4.2214   -4.8347    2.9709 C   0  0  0  0  0  0  0  0  0  0  0  0
   -4.3639   -3.5797    2.4403 C   0  0  0  0  0  0  0  0  0  0  0  0
   -3.4567   -3.0127    1.5439 C   0  0  0  0  0  0  0  0  0  0  0  0
   -3.7621   -1.6968    1.0179 C   0  0  0  0  0  0  0  0  0  0  0  0
   -5.1931   -1.2316    1.1467 C   0  0  0  0  0  0  0  0  0  0  0  0
   -6.0674   -2.1237    0.3521 C   0  0  0  0  0  0  0  0  0  0  0  0
   -6.2669   -3.4907    0.4370 O   0  0  0  0  0  0  0  0  0  0  0  0
   -6.7027   -1.4226   -0.5368 N   0  0  0  0  0  0  0  0  0  0  0  0
   -6.3534   -0.0684   -0.4541 C   0  0  0  0  0  0  0  0  0  0  0  0
   -6.8116    0.9991   -1.2196 C   0  0  0  0  0  0  0  0  0  0  0  0
   -6.3161    2.2492   -0.9433 C   0  0  0  0  0  0  0  0  0  0  0  0
   -5.3803    2.4791    0.0675 C   0  0  0  0  0  0  0  0  0  0  0  0
   -4.8870    3.8451    0.3170 C   0  0  0  0  0  0  0  0  0  0  0  0
   -4.0493    4.0038    1.2352 O   0  0  0  0  0  0  0  0  0  0  0  0
   -5.3067    4.9217   -0.4060 O   0  0  0  0  0  0  0  0  0  0  0  0
   -4.8827    6.2585   -0.2260 C   0  0  0  0  0  0  0  0  0  0  0  0
   -4.9651    1.3906    0.7883 C   0  0  0  0  0  0  0  0  0  0  0  0
   -5.4278    0.0913    0.5609 C   0  0  0  0  0  0  0  0  0  0  0  0
   -2.9650   -0.9452    0.4087 N   0  0  0  0  0  0  0  0  0  0  0  0
   -1.6421   -0.9994    0.0153 C   0  0  0  0  0  0  0  0  0  0  0  0
   -1.3025   -1.2066   -1.3318 C   0  0  0  0  0  0  0  0  0  0  0  0
    0.0039   -1.2722   -1.7430 C   0  0  0  0  0  0  0  0  0  0  0  0
    1.0790   -1.1386   -0.8558 C   0  0  0  0  0  0  0  0  0  0  0  0
    2.4126   -1.2331   -1.3031 N   0  0  0  0  0  0  0  0  0  0  0  0
    3.3522   -0.1703   -1.4099 C   0  0  0  0  0  0  0  0  0  0  0  0
    3.0103    0.9779   -2.1019 O   0  0  0  0  0  0  0  0  0  0  0  0
    4.5133   -0.3290   -0.8411 C   0  0  0  0  0  0  0  0  0  0  0  0
    5.5120    0.6678   -0.8953 N   0  0  0  0  0  0  0  0  0  0  0  0
    6.8817    0.1746   -1.0418 C   0  0  0  0  0  0  0  0  0  0  0  0
    7.8858    1.0467   -0.3516 C   0  0  0  0  0  0  0  0  0  0  0  0
    7.5927    2.4631   -0.5752 N   0  0  0  0  0  4  0  0  0  0  0  0
    8.6050    3.2144    0.1136 C   0  0  0  0  0  0  0  0  0  0  0  0
    6.3090    2.7338    0.0180 C   0  0  0  0  0  0  0  0  0  0  0  0
    5.2379    2.0879   -0.8189 C   0  0  0  0  0  0  0  0  0  0  0  0
    2.9135   -2.5651   -1.6898 C   0  0  0  0  0  0  0  0  0  0  0  0
    0.7472   -0.9339    0.4664 C   0  0  0  0  0  0  0  0  0  0  0  0
   -0.5612   -0.8672    0.8806 C   0  0  0  0  0  0  0  0  0  0  0  0
   -2.3583   -3.7650    1.1791 C   0  0  0  0  0  0  0  0  0  0  0  0
   -2.2202   -5.0319    1.7209 C   0  0  0  0  0  0  0  0  0  0  0  0
   -2.9518   -6.5944    2.9976 H   0  0  0  0  0  0  0  0  0  0  0  0
   -4.9557   -5.2291    3.6617 H   0  0  0  0  0  0  0  0  0  0  0  0
   -5.2400   -3.0216    2.7927 H   0  0  0  0  0  0  0  0  0  0  0  0
   -5.5322   -1.2027    2.1963 H   0  0  0  0  0  0  0  0  0  0  0  0
   -6.2638   -4.1047   -0.3775 H   0  0  0  0  0  0  0  0  0  0  0  0
   -7.5354    0.8823   -2.0135 H   0  0  0  0  0  0  0  0  0  0  0  0
   -6.6252    3.1281   -1.4968 H   0  0  0  0  0  0  0  0  0  0  0  0
   -5.2978    6.9182   -1.0229 H   0  0  0  0  0  0  0  0  0  0  0  0
   -5.3736    6.6116    0.7290 H   0  0  0  0  0  0  0  0  0  0  0  0
   -3.8049    6.3854   -0.0817 H   0  0  0  0  0  0  0  0  0  0  0  0
   -4.2367    1.5149    1.5878 H   0  0  0  0  0  0  0  0  0  0  0  0
   -2.1213   -1.3154   -2.0444 H   0  0  0  0  0  0  0  0  0  0  0  0
    0.2875   -1.4310   -2.7856 H   0  0  0  0  0  0  0  0  0  0  0  0
    3.4949    1.1852   -2.9810 H   0  0  0  0  0  0  0  0  0  0  0  0
    4.7387   -1.2463   -0.3042 H   0  0  0  0  0  0  0  0  0  0  0  0
    6.9762   -0.8440   -0.6015 H   0  0  0  0  0  0  0  0  0  0  0  0
    7.1188    0.0818   -2.1102 H   0  0  0  0  0  0  0  0  0  0  0  0
    8.8873    0.7860   -0.7256 H   0  0  0  0  0  0  0  0  0  0  0  0
    7.8069    0.8678    0.7368 H   0  0  0  0  0  0  0  0  0  0  0  0
    7.5460    2.7073   -1.5767 H   0  0  0  0  0  0  0  0  0  0  0  0
    9.5847    2.7212   -0.0807 H   0  0  0  0  0  0  0  0  0  0  0  0
    8.4299    3.1491    1.2099 H   0  0  0  0  0  0  0  0  0  0  0  0
    8.6708    4.2618   -0.2176 H   0  0  0  0  0  0  0  0  0  0  0  0
    6.1649    3.8377    0.0588 H   0  0  0  0  0  0  0  0  0  0  0  0
    6.3270    2.3247    1.0514 H   0  0  0  0  0  0  0  0  0  0  0  0
    4.2245    2.2651   -0.4005 H   0  0  0  0  0  0  0  0  0  0  0  0
    5.3445    2.4747   -1.8625 H   0  0  0  0  0  0  0  0  0  0  0  0
    2.4377   -3.3204   -1.0677 H   0  0  0  0  0  0  0  0  0  0  0  0
    4.0091   -2.6271   -1.5800 H   0  0  0  0  0  0  0  0  0  0  0  0
    2.6734   -2.7547   -2.7683 H   0  0  0  0  0  0  0  0  0  0  0  0
    1.5594   -0.8254    1.1721 H   0  0  0  0  0  0  0  0  0  0  0  0
   -0.8124   -0.7066    1.9161 H   0  0  0  0  0  0  0  0  0  0  0  0
   -1.6505   -3.3744    0.4821 H   0  0  0  0  0  0  0  0  0  0  0  0
   -1.3538   -5.6130    1.4272 H   0  0  0  0  0  0  0  0  0  0  0  0
  1  2  2  0
  2  3  1  0
  3  4  2  0
  4  5  1  0
  5  6  1  0
  6  7  1  0
  7  8  1  0
  7  9  2  0
  9 10  1  0
 10 11  2  0
 11 12  1  0
 12 13  2  0
 13 14  1  0
 14 15  2  0
 14 16  1  0
 16 17  1  0
 13 18  1  0
 18 19  2  0
  5 20  2  3
 20 21  1  0
 21 22  2  0
 22 23  1  0
 23 24  2  0
 24 25  1  0
 25 26  1  0
 26 27  1  0
 26 28  2  3
 28 29  1  0
 29 30  1  0
 30 31  1  0
 31 32  1  0
 32 33  1  0
 32 34  1  0
 34 35  1  0
 25 36  1  0
 24 37  1  0
 37 38  2  0
  4 39  1  0
 39 40  2  0
 40  1  1  0
 19  6  1  0
 38 21  1  0
 19 10  1  0
 35 29  1  0
  1 41  1  0
  2 42  1  0
  3 43  1  0
  6 44  1  0
  8 45  1  0
 11 46  1  0
 12 47  1  0
 17 48  1  0
 17 49  1  0
 17 50  1  0
 18 51  1  0
 22 52  1  0
 23 53  1  0
 27 54  1  0
 28 55  1  0
 30 56  1  0
 30 57  1  0
 31 58  1  0
 31 59  1  0
 32 60  1  0
 33 61  1  0
 33 62  1  0
 33 63  1  0
 34 64  1  0
 34 65  1  0
 35 66  1  0
 35 67  1  0
 36 68  1  0
 36 69  1  0
 36 70  1  0
 37 71  1  0
 38 72  1  0
 39 73  1  0
 40 74  1  0
M  CHG  1  32   1
M  END
