
 OpenBabel06082209483D

 74 78  0  0  0  0  0  0  0  0999 V2000
   -0.4609   -4.0388   -1.7368 C   0  0  0  0  0  0  0  0  0  0  0  0
   -0.3145   -3.3562   -0.5519 C   0  0  0  0  0  0  0  0  0  0  0  0
   -1.3107   -2.5000   -0.1154 C   0  0  0  0  0  0  0  0  0  0  0  0
   -2.4844   -2.2780   -0.8186 C   0  0  0  0  0  0  0  0  0  0  0  0
   -3.4361   -1.2738   -0.4070 C   0  0  0  0  0  0  0  0  0  0  0  0
   -4.8824   -1.5533   -0.4786 C   0  0  0  0  0  0  0  0  0  0  0  0
   -5.5779   -2.6392   -0.8607 C   0  0  0  0  0  0  0  0  0  0  0  0
   -5.0626   -3.8884   -1.2347 O   0  0  0  0  0  0  0  0  0  0  0  0
   -6.9106   -2.4137   -0.8443 N   0  0  0  0  0  0  0  0  0  0  0  0
   -7.0694   -1.1601   -0.4412 C   0  0  0  0  0  0  0  0  0  0  0  0
   -8.2315   -0.4086   -0.2431 C   0  0  0  0  0  0  0  0  0  0  0  0
   -8.1317    0.8914    0.1873 C   0  0  0  0  0  0  0  0  0  0  0  0
   -6.9263    1.5040    0.4384 C   0  0  0  0  0  0  0  0  0  0  0  0
   -6.8470    2.8868    0.8950 C   0  0  0  0  0  0  0  0  0  0  0  0
   -5.7354    3.4136    1.1136 O   0  0  0  0  0  0  0  0  0  0  0  0
   -8.0005    3.6304    1.0908 O   0  0  0  0  0  0  0  0  0  0  0  0
   -7.9763    4.9725    1.5315 C   0  0  0  0  0  0  0  0  0  0  0  0
   -5.7742    0.7427    0.2369 C   0  0  0  0  0  0  0  0  0  0  0  0
   -5.8549   -0.5608   -0.1939 C   0  0  0  0  0  0  0  0  0  0  0  0
   -3.0600   -0.1556    0.0556 N   0  0  0  0  0  0  0  0  0  0  0  0
   -1.7459    0.2655    0.2293 C   0  0  0  0  0  0  0  0  0  0  0  0
   -1.3261    0.7295    1.4610 C   0  0  0  0  0  0  0  0  0  0  0  0
   -0.0481    1.1647    1.6540 C   0  0  0  0  0  0  0  0  0  0  0  0
    0.9022    1.1682    0.6329 C   0  0  0  0  0  0  0  0  0  0  0  0
    2.2194    1.6332    0.8906 N   0  0  0  0  0  0  0  0  0  0  0  0
    3.3837    1.0625    0.3108 C   0  0  0  0  0  0  0  0  0  0  0  0
    3.2254    0.0983   -0.4787 O   0  0  0  0  0  0  0  0  0  0  0  0
    4.7248    1.5641    0.6095 C   0  0  0  0  0  0  0  0  0  0  0  0
    5.8021    0.8956   -0.0434 N   0  0  0  0  0  0  0  0  0  0  0  0
    7.0379    1.4814    0.3324 C   0  0  0  0  0  0  0  0  0  0  0  0
    8.2567    0.6392    0.2123 C   0  0  0  0  0  0  0  0  0  0  0  0
    8.0891   -0.5539   -0.5828 N   0  3  1  0  0  0  0  0  0  0  0  0
    9.3273   -1.3206   -0.4572 C   0  0  0  0  0  0  0  0  0  0  0  0
    6.9875   -1.2800    0.0064 C   0  0  0  0  0  0  0  0  0  0  0  0
    5.7197   -0.5150   -0.1085 C   0  0  0  0  0  0  0  0  0  0  0  0
    2.3827    2.7530    1.7963 C   0  0  0  0  0  0  0  0  0  0  0  0
    0.4808    0.7054   -0.5929 C   0  0  0  0  0  0  0  0  0  0  0  0
   -0.8081    0.2623   -0.8026 C   0  0  0  0  0  0  0  0  0  0  0  0
   -2.5938   -2.9850   -2.0132 C   0  0  0  0  0  0  0  0  0  0  0  0
   -1.6076   -3.8496   -2.4678 C   0  0  0  0  0  0  0  0  0  0  0  0
    0.3353   -4.7089   -2.0626 H   0  0  0  0  0  0  0  0  0  0  0  0
    0.5950   -3.5184    0.0066 H   0  0  0  0  0  0  0  0  0  0  0  0
   -1.1305   -2.0237    0.8315 H   0  0  0  0  0  0  0  0  0  0  0  0
   -4.7084   -4.5060   -0.5291 H   0  0  0  0  0  0  0  0  0  0  0  0
   -7.6494   -3.0848   -1.0960 H   0  0  0  0  0  0  0  0  0  0  0  0
   -9.1886   -0.8873   -0.4402 H   0  0  0  0  0  0  0  0  0  0  0  0
   -9.0620    1.4618    0.3346 H   0  0  0  0  0  0  0  0  0  0  0  0
   -8.0171    5.6505    0.6478 H   0  0  0  0  0  0  0  0  0  0  0  0
   -7.0970    5.1956    2.1480 H   0  0  0  0  0  0  0  0  0  0  0  0
   -8.8782    5.1620    2.1276 H   0  0  0  0  0  0  0  0  0  0  0  0
   -4.8232    1.2020    0.4283 H   0  0  0  0  0  0  0  0  0  0  0  0
   -2.0367    0.7370    2.2587 H   0  0  0  0  0  0  0  0  0  0  0  0
    0.2336    1.5178    2.6356 H   0  0  0  0  0  0  0  0  0  0  0  0
    4.9157    1.5315    1.7146 H   0  0  0  0  0  0  0  0  0  0  0  0
    4.7980    2.6578    0.3458 H   0  0  0  0  0  0  0  0  0  0  0  0
    7.0409    1.9323    1.3471 H   0  0  0  0  0  0  0  0  0  0  0  0
    7.1952    2.3682   -0.3563 H   0  0  0  0  0  0  0  0  0  0  0  0
    9.1515    1.2015   -0.1843 H   0  0  0  0  0  0  0  0  0  0  0  0
    8.6091    0.2765    1.2239 H   0  0  0  0  0  0  0  0  0  0  0  0
    7.8984   -0.3542   -1.5728 H   0  0  0  0  0  0  0  0  0  0  0  0
   10.1755   -0.6097   -0.4987 H   0  0  0  0  0  0  0  0  0  0  0  0
    9.3427   -1.7823    0.5486 H   0  0  0  0  0  0  0  0  0  0  0  0
    9.4583   -2.0553   -1.2573 H   0  0  0  0  0  0  0  0  0  0  0  0
    6.9097   -2.2415   -0.5786 H   0  0  0  0  0  0  0  0  0  0  0  0
    7.2221   -1.5937    1.0415 H   0  0  0  0  0  0  0  0  0  0  0  0
    5.2858   -0.7756   -1.1204 H   0  0  0  0  0  0  0  0  0  0  0  0
    4.9963   -0.9620    0.6153 H   0  0  0  0  0  0  0  0  0  0  0  0
    2.1761    2.3817    2.8211 H   0  0  0  0  0  0  0  0  0  0  0  0
    1.6621    3.5342    1.4843 H   0  0  0  0  0  0  0  0  0  0  0  0
    3.4177    3.1465    1.7949 H   0  0  0  0  0  0  0  0  0  0  0  0
    1.1719    0.6833   -1.4266 H   0  0  0  0  0  0  0  0  0  0  0  0
   -1.1610   -0.1056   -1.7535 H   0  0  0  0  0  0  0  0  0  0  0  0
   -3.4509   -2.7959   -2.6290 H   0  0  0  0  0  0  0  0  0  0  0  0
   -1.7505   -4.3691   -3.3978 H   0  0  0  0  0  0  0  0  0  0  0  0
  1  2  2  0  0  0  0
  1 41  1  0  0  0  0
  2  3  1  0  0  0  0
  2 42  1  0  0  0  0
  3  4  2  0  0  0  0
  3 43  1  0  0  0  0
  4  5  1  0  0  0  0
  4 39  1  0  0  0  0
  5  6  1  0  0  0  0
  5 20  2  3  0  0  0
  6  7  2  0  0  0  0
  7  8  1  0  0  0  0
  7  9  1  0  0  0  0
  8 44  1  0  0  0  0
  9 10  1  0  0  0  0
  9 45  1  0  0  0  0
 10 11  2  0  0  0  0
 11 12  1  0  0  0  0
 11 46  1  0  0  0  0
 12 13  2  0  0  0  0
 12 47  1  0  0  0  0
 13 14  1  0  0  0  0
 13 18  1  0  0  0  0
 14 15  2  0  0  0  0
 14 16  1  0  0  0  0
 16 17  1  0  0  0  0
 17 48  1  0  0  0  0
 17 49  1  0  0  0  0
 17 50  1  0  0  0  0
 18 19  2  0  0  0  0
 18 51  1  0  0  0  0
 19  6  1  0  0  0  0
 19 10  1  0  0  0  0
 20 21  1  0  0  0  0
 21 22  2  0  0  0  0
 22 23  1  0  0  0  0
 22 52  1  0  0  0  0
 23 24  2  0  0  0  0
 23 53  1  0  0  0  0
 24 25  1  0  0  0  0
 24 37  1  0  0  0  0
 25 26  1  0  0  0  0
 25 36  1  0  0  0  0
 26 27  2  0  0  0  0
 26 28  1  0  0  0  0
 28 29  1  0  0  0  0
 28 54  1  0  0  0  0
 28 55  1  0  0  0  0
 29 30  1  0  0  0  0
 30 31  1  0  0  0  0
 30 56  1  0  0  0  0
 30 57  1  0  0  0  0
 31 32  1  0  0  0  0
 31 58  1  0  0  0  0
 31 59  1  0  0  0  0
 32 33  1  0  0  0  0
 32 34  1  0  0  0  0
 32 60  1  6  0  0  0
 33 61  1  0  0  0  0
 33 62  1  0  0  0  0
 33 63  1  0  0  0  0
 34 35  1  0  0  0  0
 34 64  1  0  0  0  0
 34 65  1  0  0  0  0
 35 29  1  0  0  0  0
 35 66  1  0  0  0  0
 35 67  1  0  0  0  0
 36 68  1  0  0  0  0
 36 69  1  0  0  0  0
 36 70  1  0  0  0  0
 37 38  2  0  0  0  0
 37 71  1  0  0  0  0
 38 21  1  0  0  0  0
 38 72  1  0  0  0  0
 39 40  2  0  0  0  0
 39 73  1  0  0  0  0
 40  1  1  0  0  0  0
 40 74  1  0  0  0  0
M  CHG  1  32   1
M  END
$$$$
