
     RDKit          3D

 74 78  0  0  0  0  0  0  0  0999 V2000
   -3.2373   -4.6153    2.1573 C   0  0  0  0  0  0  0  0  0  0  0  0
   -3.0837   -3.4208    2.8330 C   0  0  0  0  0  0  0  0  0  0  0  0
   -3.1397   -2.2501    2.1228 C   0  0  0  0  0  0  0  0  0  0  0  0
   -3.3348   -2.2132    0.7690 C   0  0  0  0  0  0  0  0  0  0  0  0
   -3.3548   -1.0014   -0.0203 C   0  0  0  0  0  0  0  0  0  0  0  0
   -3.4951   -0.9202   -1.3102 C   0  0  0  0  0  0  0  0  0  0  0  0
   -3.6432   -0.8255   -2.6724 C   0  0  0  0  0  0  0  0  0  0  0  0
   -2.8242   -1.6420   -3.3751 O   0  0  0  0  0  0  0  0  0  0  0  0
   -4.5084   -0.0139   -3.3364 N   0  0  0  0  0  0  0  0  0  0  0  0
   -5.1179    0.6177   -2.4179 C   0  0  0  0  0  0  0  0  0  0  0  0
   -6.1268    1.5747   -2.6164 C   0  0  0  0  0  0  0  0  0  0  0  0
   -6.7535    2.1611   -1.5150 C   0  0  0  0  0  0  0  0  0  0  0  0
   -6.3843    1.7942   -0.2534 C   0  0  0  0  0  0  0  0  0  0  0  0
   -6.8981    2.2899    0.8666 C   0  0  0  0  0  0  0  0  0  0  0  0
   -6.4072    1.8098    2.1152 O   0  0  0  0  0  0  0  0  0  0  0  0
   -7.8461    3.2044    0.9413 O   0  0  0  0  0  0  0  0  0  0  0  0
   -8.7085    3.8739    0.1449 C   0  0  0  0  0  0  0  0  0  0  0  0
   -5.3459    0.8008   -0.1323 C   0  0  0  0  0  0  0  0  0  0  0  0
   -4.7658    0.2835   -1.1933 C   0  0  0  0  0  0  0  0  0  0  0  0
   -2.7641    0.1787    0.7279 N   0  0  0  0  0  0  0  0  0  0  0  0
   -1.3553    0.2652    0.4352 C   0  0  0  0  0  0  0  0  0  0  0  0
   -0.5012   -0.0827    1.4412 C   0  0  0  0  0  0  0  0  0  0  0  0
    0.8515   -0.2839    1.1327 C   0  0  0  0  0  0  0  0  0  0  0  0
    1.2837   -0.1299   -0.1337 C   0  0  0  0  0  0  0  0  0  0  0  0
    2.5141   -0.6380   -0.5077 N   0  0  0  0  0  0  0  0  0  0  0  0
    3.8096   -0.3227   -0.3826 C   0  0  0  0  0  0  0  0  0  0  0  0
    4.4932   -0.8037    0.7614 O   0  0  0  0  0  0  0  0  0  0  0  0
    4.5106    0.4142   -1.2331 C   0  0  0  0  0  0  0  0  0  0  0  0
    5.8724    0.6221   -1.0172 N   0  0  0  0  0  0  0  0  0  0  0  0
    6.5710    1.8458   -1.0969 C   0  0  0  0  0  0  0  0  0  0  0  0
    7.5780    1.9354    0.0698 C   0  0  0  0  0  0  0  0  0  0  0  0
    8.3566    0.7387    0.2642 N   0  0  0  0  0  4  0  0  0  0  0  0
    9.0252    0.8814    1.5753 C   0  0  0  0  0  0  0  0  0  0  0  0
    7.4714   -0.4393    0.4385 C   0  0  0  0  0  0  0  0  0  0  0  0
    6.6504   -0.6319   -0.7458 C   0  0  0  0  0  0  0  0  0  0  0  0
    2.3478   -1.9557   -1.3383 C   0  0  0  0  0  0  0  0  0  0  0  0
    0.3941    0.2421   -1.1769 C   0  0  0  0  0  0  0  0  0  0  0  0
   -0.9304    0.4299   -0.8581 C   0  0  0  0  0  0  0  0  0  0  0  0
   -3.4848   -3.4402    0.0922 C   0  0  0  0  0  0  0  0  0  0  0  0
   -3.4395   -4.6168    0.7807 C   0  0  0  0  0  0  0  0  0  0  0  0
   -3.1973   -5.5677    2.7029 H   0  0  0  0  0  0  0  0  0  0  0  0
   -2.9231   -3.3871    3.9001 H   0  0  0  0  0  0  0  0  0  0  0  0
   -2.9907   -1.3121    2.6165 H   0  0  0  0  0  0  0  0  0  0  0  0
   -6.4428    1.8458   -3.5813 H   0  0  0  0  0  0  0  0  0  0  0  0
   -7.5111    2.9006   -1.7006 H   0  0  0  0  0  0  0  0  0  0  0  0
   -7.0575    1.7979    2.8716 H   0  0  0  0  0  0  0  0  0  0  0  0
   -9.3591    3.1097   -0.3677 H   0  0  0  0  0  0  0  0  0  0  0  0
   -8.3232    4.6586   -0.5036 H   0  0  0  0  0  0  0  0  0  0  0  0
   -9.4666    4.4578    0.8326 H   0  0  0  0  0  0  0  0  0  0  0  0
   -5.1515    0.4856    0.8974 H   0  0  0  0  0  0  0  0  0  0  0  0
   -3.2679    0.7657    1.3172 H   0  0  0  0  0  0  0  0  0  0  0  0
   -0.8609   -0.1773    2.4607 H   0  0  0  0  0  0  0  0  0  0  0  0
    1.5398   -0.5289    1.9458 H   0  0  0  0  0  0  0  0  0  0  0  0
    4.5410   -0.3484    1.6321 H   0  0  0  0  0  0  0  0  0  0  0  0
    3.9831    0.8558   -2.0631 H   0  0  0  0  0  0  0  0  0  0  0  0
    5.9469    2.7736   -0.9809 H   0  0  0  0  0  0  0  0  0  0  0  0
    7.0929    2.0081   -2.0702 H   0  0  0  0  0  0  0  0  0  0  0  0
    6.9620    2.0998    0.9732 H   0  0  0  0  0  0  0  0  0  0  0  0
    8.2361    2.7623   -0.1743 H   0  0  0  0  0  0  0  0  0  0  0  0
    9.0140    0.5167   -0.4798 H   0  0  0  0  0  0  0  0  0  0  0  0
    9.1259    1.9703    1.8380 H   0  0  0  0  0  0  0  0  0  0  0  0
   10.0195    0.4089    1.6053 H   0  0  0  0  0  0  0  0  0  0  0  0
    8.3968    0.4605    2.4107 H   0  0  0  0  0  0  0  0  0  0  0  0
    6.9388   -0.2895    1.3790 H   0  0  0  0  0  0  0  0  0  0  0  0
    8.2155   -1.2722    0.5766 H   0  0  0  0  0  0  0  0  0  0  0  0
    5.9794   -1.4623   -0.5824 H   0  0  0  0  0  0  0  0  0  0  0  0
    7.2797   -0.8049   -1.6839 H   0  0  0  0  0  0  0  0  0  0  0  0
    2.9701   -2.6586   -0.7857 H   0  0  0  0  0  0  0  0  0  0  0  0
    2.7167   -1.6080   -2.3140 H   0  0  0  0  0  0  0  0  0  0  0  0
    1.2879   -2.1640   -1.2714 H   0  0  0  0  0  0  0  0  0  0  0  0
    0.7874    0.3414   -2.1502 H   0  0  0  0  0  0  0  0  0  0  0  0
   -1.5956    0.7174   -1.6666 H   0  0  0  0  0  0  0  0  0  0  0  0
   -3.6197   -3.4770   -0.9658 H   0  0  0  0  0  0  0  0  0  0  0  0
   -3.5457   -5.5944    0.3084 H   0  0  0  0  0  0  0  0  0  0  0  0
  1  2  2  0
  2  3  1  0
  3  4  2  0
  4  5  1  0
  5  6  2  3
  6  7  1  0
  7  8  2  0
  7  9  1  0
  9 10  2  0
 10 11  1  0
 11 12  2  0
 12 13  1  0
 13 14  2  3
 14 15  1  0
 14 16  1  0
 16 17  1  0
 13 18  1  0
 18 19  2  0
  5 20  1  0
 20 21  1  0
 21 22  2  0
 22 23  1  0
 23 24  2  0
 24 25  1  0
 25 26  1  0
 26 27  1  0
 26 28  2  3
 28 29  1  0
 29 30  1  0
 30 31  1  0
 31 32  1  0
 32 33  1  0
 32 34  1  0
 34 35  1  0
 25 36  1  0
 24 37  1  0
 37 38  2  0
  4 39  1  0
 39 40  2  0
 40  1  1  0
 19  6  1  0
 38 21  1  0
 19 10  1  0
 35 29  1  0
  1 41  1  0
  2 42  1  0
  3 43  1  0
 11 44  1  0
 12 45  1  0
 15 46  1  0
 17 47  1  0
 17 48  1  0
 17 49  1  0
 18 50  1  0
 20 51  1  0
 22 52  1  0
 23 53  1  0
 27 54  1  0
 28 55  1  0
 30 56  1  0
 30 57  1  0
 31 58  1  0
 31 59  1  0
 32 60  1  0
 33 61  1  0
 33 62  1  0
 33 63  1  0
 34 64  1  0
 34 65  1  0
 35 66  1  0
 35 67  1  0
 36 68  1  0
 36 69  1  0
 36 70  1  0
 37 71  1  0
 38 72  1  0
 39 73  1  0
 40 74  1  0
M  CHG  1  32   1
M  END
