
 OpenBabel06082209483D

 74 78  0  0  0  0  0  0  0  0999 V2000
    4.1129   -4.4955   -0.7693 C   0  0  0  0  0  0  0  0  0  0  0  0
    4.8835   -3.9902    0.2645 C   0  0  0  0  0  0  0  0  0  0  0  0
    4.4920   -2.8755    0.9247 C   0  0  0  0  0  0  0  0  0  0  0  0
    3.3270   -2.1824    0.6218 C   0  0  0  0  0  0  0  0  0  0  0  0
    2.9593   -0.9776    1.3372 C   0  0  0  0  0  0  0  0  0  0  0  0
    3.9994   -0.2906    2.1709 C   0  0  2  0  0  0  0  0  0  0  0  0
    3.3330    0.7805    2.9856 C   0  0  0  0  0  0  0  0  0  0  0  0
    2.3737    0.6459    3.8060 O   0  0  0  0  0  0  0  0  0  0  0  0
    3.9617    1.9806    2.6811 N   0  0  0  0  0  0  0  0  0  0  0  0
    4.8885    1.8035    1.7818 C   0  0  0  0  0  0  0  0  0  0  0  0
    5.7401    2.7328    1.2079 C   0  0  0  0  0  0  0  0  0  0  0  0
    6.6758    2.3712    0.2579 C   0  0  0  0  0  0  0  0  0  0  0  0
    6.8024    1.0731   -0.1602 C   0  0  0  0  0  0  0  0  0  0  0  0
    7.6919    0.7127   -1.0521 C   0  0  0  0  0  0  0  0  0  0  0  0
    7.6860   -0.6878   -1.3756 O   0  0  0  0  0  0  0  0  0  0  0  0
    8.6136    1.4202   -1.7196 O   0  0  0  0  0  0  0  0  0  0  0  0
    9.0515    2.6959   -1.8256 C   0  0  0  0  0  0  0  0  0  0  0  0
    5.9381    0.1408    0.4254 C   0  0  0  0  0  0  0  0  0  0  0  0
    4.9863    0.4934    1.3897 C   0  0  0  0  0  0  0  0  0  0  0  0
    1.8367   -0.4424    1.3009 N   0  0  0  0  0  0  0  0  0  0  0  0
    0.6163   -0.6484    0.7087 C   0  0  0  0  0  0  0  0  0  0  0  0
    0.1933    0.1369   -0.3437 C   0  0  0  0  0  0  0  0  0  0  0  0
   -1.0308   -0.0805   -0.9304 C   0  0  0  0  0  0  0  0  0  0  0  0
   -1.8994   -1.0596   -0.5337 C   0  0  0  0  0  0  0  0  0  0  0  0
   -3.1582   -1.3011   -1.1462 N   0  0  0  0  0  0  0  0  0  0  0  0
   -4.2932   -0.4966   -0.8913 C   0  0  0  0  0  0  0  0  0  0  0  0
   -5.3826   -0.7756   -1.4363 O   0  0  0  0  0  0  0  0  0  0  0  0
   -4.2032    0.6670    0.0123 C   0  0  0  0  0  0  0  0  0  0  0  0
   -5.4542    1.3082    0.1425 N   0  0  0  0  0  0  0  0  0  0  0  0
   -6.0110    1.9751   -0.9621 C   0  0  0  0  0  0  0  0  0  0  0  0
   -7.4473    1.6213   -1.2815 C   0  0  0  0  0  0  0  0  0  0  0  0
   -8.2282    1.3055   -0.0980 N   0  3  2  0  0  0  0  0  0  0  0  0
   -9.5738    1.8117   -0.1518 C   0  0  0  0  0  0  0  0  0  0  0  0
   -7.5698    1.7683    1.1091 C   0  0  0  0  0  0  0  0  0  0  0  0
   -6.2749    0.9794    1.2415 C   0  0  0  0  0  0  0  0  0  0  0  0
   -3.2545   -2.4316   -2.0662 C   0  0  0  0  0  0  0  0  0  0  0  0
   -1.4817   -1.8594    0.5308 C   0  0  0  0  0  0  0  0  0  0  0  0
   -0.2693   -1.6689    1.1373 C   0  0  0  0  0  0  0  0  0  0  0  0
    2.5719   -2.7097   -0.4205 C   0  0  0  0  0  0  0  0  0  0  0  0
    2.9482   -3.8607   -1.1234 C   0  0  0  0  0  0  0  0  0  0  0  0
    4.4822   -5.3909   -1.2528 H   0  0  0  0  0  0  0  0  0  0  0  0
    5.8102   -4.4677    0.5703 H   0  0  0  0  0  0  0  0  0  0  0  0
    5.1321   -2.4961    1.7486 H   0  0  0  0  0  0  0  0  0  0  0  0
    4.4463   -1.0507    2.8299 H   0  0  0  0  0  0  0  0  0  0  0  0
    5.6762    3.7744    1.5078 H   0  0  0  0  0  0  0  0  0  0  0  0
    7.3274    3.1357   -0.1661 H   0  0  0  0  0  0  0  0  0  0  0  0
    7.6592   -0.9155   -2.3527 H   0  0  0  0  0  0  0  0  0  0  0  0
    9.9096    2.7152   -2.5870 H   0  0  0  0  0  0  0  0  0  0  0  0
    9.5515    3.1393   -0.9192 H   0  0  0  0  0  0  0  0  0  0  0  0
    8.3230    3.4418   -2.2615 H   0  0  0  0  0  0  0  0  0  0  0  0
    6.0472   -0.8625    0.0925 H   0  0  0  0  0  0  0  0  0  0  0  0
    0.8069    0.9330   -0.7263 H   0  0  0  0  0  0  0  0  0  0  0  0
   -1.3497    0.5490   -1.7622 H   0  0  0  0  0  0  0  0  0  0  0  0
   -3.4609    1.4027   -0.3690 H   0  0  0  0  0  0  0  0  0  0  0  0
   -3.8741    0.3686    1.0521 H   0  0  0  0  0  0  0  0  0  0  0  0
   -5.4201    1.7086   -1.8743 H   0  0  0  0  0  0  0  0  0  0  0  0
   -5.9267    3.0891   -0.8881 H   0  0  0  0  0  0  0  0  0  0  0  0
   -7.5382    0.8133   -2.0245 H   0  0  0  0  0  0  0  0  0  0  0  0
   -7.9175    2.5135   -1.7396 H   0  0  0  0  0  0  0  0  0  0  0  0
   -8.2899    0.2579   -0.0023 H   0  0  0  0  0  0  0  0  0  0  0  0
  -10.0883    1.4318    0.7587 H   0  0  0  0  0  0  0  0  0  0  0  0
   -9.6024    2.9115   -0.1930 H   0  0  0  0  0  0  0  0  0  0  0  0
  -10.0656    1.4143   -1.0743 H   0  0  0  0  0  0  0  0  0  0  0  0
   -7.3639    2.8445    1.0497 H   0  0  0  0  0  0  0  0  0  0  0  0
   -8.2209    1.5255    1.9662 H   0  0  0  0  0  0  0  0  0  0  0  0
   -6.5779   -0.0904    1.2992 H   0  0  0  0  0  0  0  0  0  0  0  0
   -5.7998    1.3165    2.1930 H   0  0  0  0  0  0  0  0  0  0  0  0
   -3.5208   -3.3148   -1.4386 H   0  0  0  0  0  0  0  0  0  0  0  0
   -2.2511   -2.5965   -2.5038 H   0  0  0  0  0  0  0  0  0  0  0  0
   -3.9650   -2.2625   -2.8834 H   0  0  0  0  0  0  0  0  0  0  0  0
   -2.1779   -2.6374    0.8426 H   0  0  0  0  0  0  0  0  0  0  0  0
    0.0630   -2.2741    1.9554 H   0  0  0  0  0  0  0  0  0  0  0  0
    1.6602   -2.2433   -0.7588 H   0  0  0  0  0  0  0  0  0  0  0  0
    2.3647   -4.2737   -1.9290 H   0  0  0  0  0  0  0  0  0  0  0  0
  1  2  2  0  0  0  0
  1 41  1  0  0  0  0
  2  3  1  0  0  0  0
  2 42  1  0  0  0  0
  3  4  2  0  0  0  0
  3 43  1  0  0  0  0
  4  5  1  0  0  0  0
  4 39  1  0  0  0  0
  5  6  1  0  0  0  0
  5 20  2  3  0  0  0
  6  7  1  0  0  0  0
  6 44  1  1  0  0  0
  7  8  2  0  0  0  0
  7  9  1  0  0  0  0
  9 10  2  0  0  0  0
 10 11  1  0  0  0  0
 11 12  2  0  0  0  0
 11 45  1  0  0  0  0
 12 13  1  0  0  0  0
 12 46  1  0  0  0  0
 13 14  2  3  0  0  0
 13 18  1  0  0  0  0
 14 15  1  0  0  0  0
 14 16  1  0  0  0  0
 15 47  1  0  0  0  0
 16 17  1  0  0  0  0
 17 48  1  0  0  0  0
 17 49  1  0  0  0  0
 17 50  1  0  0  0  0
 18 19  2  0  0  0  0
 18 51  1  0  0  0  0
 19  6  1  0  0  0  0
 19 10  1  0  0  0  0
 20 21  1  0  0  0  0
 21 22  2  0  0  0  0
 22 23  1  0  0  0  0
 22 52  1  0  0  0  0
 23 24  2  0  0  0  0
 23 53  1  0  0  0  0
 24 25  1  0  0  0  0
 24 37  1  0  0  0  0
 25 26  1  0  0  0  0
 25 36  1  0  0  0  0
 26 27  2  0  0  0  0
 26 28  1  0  0  0  0
 28 29  1  0  0  0  0
 28 54  1  0  0  0  0
 28 55  1  0  0  0  0
 29 30  1  0  0  0  0
 30 31  1  0  0  0  0
 30 56  1  0  0  0  0
 30 57  1  0  0  0  0
 31 32  1  0  0  0  0
 31 58  1  0  0  0  0
 31 59  1  0  0  0  0
 32 33  1  0  0  0  0
 32 34  1  0  0  0  0
 32 60  1  1  0  0  0
 33 61  1  0  0  0  0
 33 62  1  0  0  0  0
 33 63  1  0  0  0  0
 34 35  1  0  0  0  0
 34 64  1  0  0  0  0
 34 65  1  0  0  0  0
 35 29  1  0  0  0  0
 35 66  1  0  0  0  0
 35 67  1  0  0  0  0
 36 68  1  0  0  0  0
 36 69  1  0  0  0  0
 36 70  1  0  0  0  0
 37 38  2  0  0  0  0
 37 71  1  0  0  0  0
 38 21  1  0  0  0  0
 38 72  1  0  0  0  0
 39 40  2  0  0  0  0
 39 73  1  0  0  0  0
 40  1  1  0  0  0  0
 40 74  1  0  0  0  0
M  CHG  1  32   1
M  END
$$$$
