6212
 OpenBabel06082209423D

  5  4  0  0  0  0  0  0  0  0999 V2000
   -0.0962   -1.6789    0.1394 Cl  0  0  0  0  0  0  0  0  0  0  0  0
   -1.4059    0.9228    0.1394 Cl  0  0  0  0  0  0  0  0  0  0  0  0
    1.5022    0.7561    0.1393 Cl  0  0  0  0  0  0  0  0  0  0  0  0
   -0.0001    0.0000   -0.4181 C   0  0  0  0  0  0  0  0  0  0  0  0
   -0.0001   -0.0001   -1.5111 H   0  0  0  0  0  0  0  0  0  0  0  0
  1  4  1  0  0  0  0
  2  4  1  0  0  0  0
  3  4  1  0  0  0  0
  4  5  1  0  0  0  0
M  END
