
     RDKit          3D

  5  4  0  0  0  0  0  0  0  0999 V2000
   -0.7239    1.5304   -0.3863 Cl  0  0  0  0  0  0  0  0  0  0  0  0
    0.0097   -0.0075    0.1346 C   0  0  0  0  0  0  0  0  0  0  0  0
   -1.0129   -1.3291   -0.4783 Cl  0  0  0  0  0  0  0  0  0  0  0  0
    1.6580   -0.1132   -0.5145 Cl  0  0  0  0  0  0  0  0  0  0  0  0
    0.0691   -0.0805    1.2446 H   0  0  0  0  0  0  0  0  0  0  0  0
  1  2  1  0
  2  3  1  0
  2  4  1  0
  2  5  1  0
M  END
