
     RDKit          3D

 36 38  0  0  0  0  0  0  0  0999 V2000
    5.1657   -1.5106   -0.6696 N   0  0  0  0  0  0  0  0  0  0  0  0
    3.9162   -0.8273   -0.5553 C   0  0  0  0  0  0  0  0  0  0  0  0
    3.9002    0.5054   -0.9055 C   0  0  0  0  0  0  0  0  0  0  0  0
    2.6799    1.1702   -0.7890 C   0  0  0  0  0  0  0  0  0  0  0  0
    1.5352    0.5535   -0.3504 C   0  0  0  0  0  0  0  0  0  0  0  0
    0.3475    1.2717   -0.2582 N   0  0  0  0  0  0  0  0  0  0  0  0
   -0.9068    0.8057    0.2112 C   0  0  0  0  0  0  0  0  0  0  0  0
   -1.4390    1.3213    1.3015 C   0  0  0  0  0  0  0  0  0  0  0  0
   -2.6956    1.0136    1.9641 C   0  0  0  0  0  0  0  0  0  0  0  0
   -2.8354    1.7787    3.0596 C   0  0  0  0  0  0  0  0  0  0  0  0
   -1.7135    2.6293    3.2034 N   0  0  0  0  0  0  0  0  0  0  0  0
   -0.8212    2.3777    2.1317 C   0  0  0  0  0  0  0  0  0  0  0  0
    0.2797    2.8885    1.8587 O   0  0  0  0  0  0  0  0  0  0  0  0
   -1.5773   -0.2560   -0.5016 C   0  0  0  0  0  0  0  0  0  0  0  0
   -2.1443   -1.3693    0.0716 C   0  0  0  0  0  0  0  0  0  0  0  0
   -2.7921   -2.3392   -0.7003 C   0  0  0  0  0  0  0  0  0  0  0  0
   -2.8703   -2.1835   -2.0888 C   0  0  0  0  0  0  0  0  0  0  0  0
   -2.3050   -1.0726   -2.6740 C   0  0  0  0  0  0  0  0  0  0  0  0
   -1.6774   -0.1420   -1.8788 C   0  0  0  0  0  0  0  0  0  0  0  0
    1.5905   -0.7726   -0.0117 C   0  0  0  0  0  0  0  0  0  0  0  0
    2.7844   -1.5003   -0.1050 C   0  0  0  0  0  0  0  0  0  0  0  0
    5.3709   -2.0598   -1.5250 H   0  0  0  0  0  0  0  0  0  0  0  0
    5.8461   -1.4416    0.1105 H   0  0  0  0  0  0  0  0  0  0  0  0
    4.7645    1.0555   -1.2582 H   0  0  0  0  0  0  0  0  0  0  0  0
    2.6874    2.2365   -1.0738 H   0  0  0  0  0  0  0  0  0  0  0  0
    0.3357    2.2897   -0.5640 H   0  0  0  0  0  0  0  0  0  0  0  0
   -3.4212    0.2990    1.6425 H   0  0  0  0  0  0  0  0  0  0  0  0
   -3.6645    1.7845    3.7649 H   0  0  0  0  0  0  0  0  0  0  0  0
   -1.5645    3.3241    3.9647 H   0  0  0  0  0  0  0  0  0  0  0  0
   -2.0782   -1.5124    1.1384 H   0  0  0  0  0  0  0  0  0  0  0  0
   -3.2304   -3.2041   -0.2295 H   0  0  0  0  0  0  0  0  0  0  0  0
   -3.3789   -2.9479   -2.6850 H   0  0  0  0  0  0  0  0  0  0  0  0
   -2.3846   -0.9849   -3.7597 H   0  0  0  0  0  0  0  0  0  0  0  0
   -1.2426    0.7189   -2.3561 H   0  0  0  0  0  0  0  0  0  0  0  0
    0.7266   -1.3448    0.3475 H   0  0  0  0  0  0  0  0  0  0  0  0
    2.8125   -2.5549    0.1691 H   0  0  0  0  0  0  0  0  0  0  0  0
  1  2  1  0
  2  3  2  0
  3  4  1  0
  4  5  2  0
  5  6  1  0
  6  7  1  0
  7  8  2  0
  8  9  1  0
  9 10  2  0
 10 11  1  0
 11 12  1  0
 12 13  2  0
  7 14  1  0
 14 15  2  0
 15 16  1  0
 16 17  2  0
 17 18  1  0
 18 19  2  0
  5 20  1  0
 20 21  2  0
 21  2  1  0
 12  8  1  0
 19 14  1  0
  1 22  1  0
  1 23  1  0
  3 24  1  0
  4 25  1  0
  6 26  1  0
  9 27  1  0
 10 28  1  0
 11 29  1  0
 15 30  1  0
 16 31  1  0
 17 32  1  0
 18 33  1  0
 19 34  1  0
 20 35  1  0
 21 36  1  0
M  END
