
     RDKit          3D

 36 38  0  0  0  0  0  0  0  0999 V2000
   -1.4315    1.7730    0.8568 C   0  0  0  0  0  0  0  0  0  0  0  0
   -2.1278    2.7058    0.2147 C   0  0  0  0  0  0  0  0  0  0  0  0
   -1.7990    2.6338   -1.1710 N   0  0  0  0  0  0  0  0  0  0  0  0
   -0.9306    1.6929   -1.3935 C   0  0  0  0  0  0  0  0  0  0  0  0
   -0.4450    1.4138   -2.6651 O   0  0  0  0  0  0  0  0  0  0  0  0
   -0.6039    1.0467   -0.1024 C   0  0  0  0  0  0  0  0  0  0  0  0
   -0.6769   -0.4057   -0.0835 C   0  0  0  0  0  0  0  0  0  0  0  0
   -1.8426   -1.2381   -0.3284 C   0  0  0  0  0  0  0  0  0  0  0  0
   -3.0935   -0.7701   -0.6559 C   0  0  0  0  0  0  0  0  0  0  0  0
   -4.1787   -1.6207   -0.8747 C   0  0  0  0  0  0  0  0  0  0  0  0
   -4.0377   -2.9776   -0.7702 C   0  0  0  0  0  0  0  0  0  0  0  0
   -2.7967   -3.4813   -0.4434 C   0  0  0  0  0  0  0  0  0  0  0  0
   -1.7382   -2.6297   -0.2310 C   0  0  0  0  0  0  0  0  0  0  0  0
    0.4279   -1.0411    0.1935 N   0  0  0  0  0  0  0  0  0  0  0  0
    1.6483   -0.4220    0.4665 C   0  0  0  0  0  0  0  0  0  0  0  0
    2.5394   -0.2387   -0.5855 C   0  0  0  0  0  0  0  0  0  0  0  0
    3.7590    0.3516   -0.4450 C   0  0  0  0  0  0  0  0  0  0  0  0
    4.1614    0.8032    0.7971 C   0  0  0  0  0  0  0  0  0  0  0  0
    5.4259    1.4222    0.9748 N   0  0  0  0  0  0  0  0  0  0  0  0
    3.2892    0.6307    1.8586 C   0  0  0  0  0  0  0  0  0  0  0  0
    2.0585    0.0310    1.6979 C   0  0  0  0  0  0  0  0  0  0  0  0
   -1.5065    1.6216    1.9221 H   0  0  0  0  0  0  0  0  0  0  0  0
   -2.8321    3.4163    0.6335 H   0  0  0  0  0  0  0  0  0  0  0  0
   -0.5476    2.0590   -3.4416 H   0  0  0  0  0  0  0  0  0  0  0  0
    0.4727    1.3448    0.1493 H   0  0  0  0  0  0  0  0  0  0  0  0
   -3.2250    0.2996   -0.7471 H   0  0  0  0  0  0  0  0  0  0  0  0
   -5.1400   -1.2114   -1.1289 H   0  0  0  0  0  0  0  0  0  0  0  0
   -4.8372   -3.6844   -0.9272 H   0  0  0  0  0  0  0  0  0  0  0  0
   -2.6732   -4.5561   -0.3578 H   0  0  0  0  0  0  0  0  0  0  0  0
   -0.7690   -3.0534    0.0258 H   0  0  0  0  0  0  0  0  0  0  0  0
    2.2529   -0.5857   -1.5880 H   0  0  0  0  0  0  0  0  0  0  0  0
    4.4513    0.4895   -1.2833 H   0  0  0  0  0  0  0  0  0  0  0  0
    5.6738    1.8173    1.8984 H   0  0  0  0  0  0  0  0  0  0  0  0
    6.0944    1.4830    0.2039 H   0  0  0  0  0  0  0  0  0  0  0  0
    3.5999    0.9845    2.8411 H   0  0  0  0  0  0  0  0  0  0  0  0
    1.3780   -0.1042    2.5238 H   0  0  0  0  0  0  0  0  0  0  0  0
  1  2  2  0
  2  3  1  0
  3  4  2  0
  4  5  1  0
  4  6  1  0
  6  7  1  0
  7  8  1  0
  8  9  2  0
  9 10  1  0
 10 11  2  0
 11 12  1  0
 12 13  2  0
  7 14  2  3
 14 15  1  0
 15 16  2  0
 16 17  1  0
 17 18  2  0
 18 19  1  0
 18 20  1  0
 20 21  2  0
  6  1  1  0
 13  8  1  0
 21 15  1  0
  1 22  1  0
  2 23  1  0
  5 24  1  0
  6 25  1  0
  9 26  1  0
 10 27  1  0
 11 28  1  0
 12 29  1  0
 13 30  1  0
 16 31  1  0
 17 32  1  0
 19 33  1  0
 19 34  1  0
 20 35  1  0
 21 36  1  0
M  END
