
 OpenBabel06082210043D

 36 38  0  0  0  0  0  0  0  0999 V2000
   -0.8376   -1.6976   -1.1305 C   0  0  0  0  0  0  0  0  0  0  0  0
   -1.7364   -2.8224   -1.3145 C   0  0  0  0  0  0  0  0  0  0  0  0
   -2.4724   -2.9671   -0.2826 N   0  0  0  0  0  0  0  0  0  0  0  0
   -2.1443   -1.9661    0.6839 C   0  0  1  0  0  0  0  0  0  0  0  0
   -1.6681   -2.5873    1.8651 O   0  0  0  0  0  0  0  0  0  0  0  0
   -1.0746   -1.1853    0.0530 C   0  0  0  0  0  0  0  0  0  0  0  0
   -0.3411    0.0020    0.6160 C   0  0  2  0  0  0  0  0  0  0  0  0
   -1.3759    1.0463    0.8773 C   0  0  0  0  0  0  0  0  0  0  0  0
   -1.7639    1.4238    2.1423 C   0  0  0  0  0  0  0  0  0  0  0  0
   -2.7343    2.4037    2.3499 C   0  0  0  0  0  0  0  0  0  0  0  0
   -3.3155    3.0053    1.2506 C   0  0  0  0  0  0  0  0  0  0  0  0
   -2.9205    2.6210   -0.0238 C   0  0  0  0  0  0  0  0  0  0  0  0
   -1.9599    1.6508   -0.2164 C   0  0  0  0  0  0  0  0  0  0  0  0
    0.5268    0.4978   -0.3940 N   0  0  0  0  0  0  0  0  0  0  0  0
    1.7419    0.2044   -0.5838 C   0  0  0  0  0  0  0  0  0  0  0  0
    2.4747   -0.7362    0.2483 C   0  0  0  0  0  0  0  0  0  0  0  0
    3.7469   -0.9908   -0.0157 C   0  0  0  0  0  0  0  0  0  0  0  0
    4.4689   -0.3629   -1.1228 C   0  0  0  0  0  0  0  0  0  0  0  0
    5.7100   -0.6397   -1.3449 N   0  0  0  0  0  0  0  0  0  0  0  0
    3.7251    0.5791   -1.9517 C   0  0  0  0  0  0  0  0  0  0  0  0
    2.4489    0.8343   -1.6866 C   0  0  0  0  0  0  0  0  0  0  0  0
   -0.1054   -1.3773   -1.8885 H   0  0  0  0  0  0  0  0  0  0  0  0
   -1.7622   -3.4495   -2.2257 H   0  0  0  0  0  0  0  0  0  0  0  0
   -3.0129   -1.3458    0.9883 H   0  0  0  0  0  0  0  0  0  0  0  0
   -1.0109   -3.2709    1.6110 H   0  0  0  0  0  0  0  0  0  0  0  0
    0.1542   -0.2764    1.5572 H   0  0  0  0  0  0  0  0  0  0  0  0
   -1.3032    0.9471    2.9997 H   0  0  0  0  0  0  0  0  0  0  0  0
   -3.0443    2.7056    3.3338 H   0  0  0  0  0  0  0  0  0  0  0  0
   -4.0756    3.7739    1.3278 H   0  0  0  0  0  0  0  0  0  0  0  0
   -3.3652    3.0815   -0.8838 H   0  0  0  0  0  0  0  0  0  0  0  0
   -1.6931    1.3931   -1.2397 H   0  0  0  0  0  0  0  0  0  0  0  0
    1.9932   -1.2460    1.0997 H   0  0  0  0  0  0  0  0  0  0  0  0
    4.3382   -1.6954    0.5884 H   0  0  0  0  0  0  0  0  0  0  0  0
    6.1805   -0.1649   -2.1477 H   0  0  0  0  0  0  0  0  0  0  0  0
    4.2469    1.0605   -2.7860 H   0  0  0  0  0  0  0  0  0  0  0  0
    1.9614    1.5515   -2.3534 H   0  0  0  0  0  0  0  0  0  0  0  0
  1  2  1  0  0  0  0
  1 22  1  0  0  0  0
  2  3  2  0  0  0  0
  2 23  1  0  0  0  0
  3  4  1  0  0  0  0
  4  5  1  0  0  0  0
  4  6  1  0  0  0  0
  4 24  1  1  0  0  0
  5 25  1  0  0  0  0
  6  7  1  0  0  0  0
  6  1  2  0  0  0  0
  7  8  1  0  0  0  0
  7 14  1  0  0  0  0
  7 26  1  1  0  0  0
  8  9  2  0  0  0  0
  9 10  1  0  0  0  0
  9 27  1  0  0  0  0
 10 11  2  0  0  0  0
 10 28  1  0  0  0  0
 11 12  1  0  0  0  0
 11 29  1  0  0  0  0
 12 13  2  0  0  0  0
 12 30  1  0  0  0  0
 13  8  1  0  0  0  0
 13 31  1  0  0  0  0
 14 15  2  3  0  0  0
 15 16  1  0  0  0  0
 16 17  2  0  0  0  0
 16 32  1  0  0  0  0
 17 18  1  0  0  0  0
 17 33  1  0  0  0  0
 18 19  2  3  0  0  0
 18 20  1  0  0  0  0
 19 34  1  0  0  0  0
 20 21  2  0  0  0  0
 20 35  1  0  0  0  0
 21 15  1  0  0  0  0
 21 36  1  0  0  0  0
M  END
$$$$
