
 OpenBabel06082210043D

 36 38  0  0  0  0  0  0  0  0999 V2000
   -1.5660   -2.0125   -1.2708 C   0  0  0  0  0  0  0  0  0  0  0  0
   -2.6322   -2.4513   -0.6720 C   0  0  0  0  0  0  0  0  0  0  0  0
   -2.4916   -2.3047    0.7145 N   0  0  0  0  0  0  0  0  0  0  0  0
   -1.3561   -1.7798    1.0280 C   0  0  0  0  0  0  0  0  0  0  0  0
   -0.9895   -1.5379    2.3427 O   0  0  0  0  0  0  0  0  0  0  0  0
   -0.6310   -1.5306   -0.2086 C   0  0  2  0  0  0  0  0  0  0  0  0
   -0.2647   -0.1020   -0.4905 C   0  0  1  0  0  0  0  0  0  0  0  0
   -1.4644    0.7886   -0.5127 C   0  0  0  0  0  0  0  0  0  0  0  0
   -2.0545    1.1324   -1.7114 C   0  0  0  0  0  0  0  0  0  0  0  0
   -3.1658    1.9647   -1.7676 C   0  0  0  0  0  0  0  0  0  0  0  0
   -3.6564    2.4348   -0.5695 C   0  0  0  0  0  0  0  0  0  0  0  0
   -3.0632    2.0886    0.6277 C   0  0  0  0  0  0  0  0  0  0  0  0
   -1.9435    1.2503    0.6851 C   0  0  0  0  0  0  0  0  0  0  0  0
    0.6238    0.4429    0.4899 N   0  0  0  0  0  0  0  0  0  0  0  0
    1.8797    0.2858    0.4857 C   0  0  0  0  0  0  0  0  0  0  0  0
    2.7419    0.8697    1.5196 C   0  0  0  0  0  0  0  0  0  0  0  0
    4.0392    0.6805    1.4750 C   0  0  0  0  0  0  0  0  0  0  0  0
    4.7078   -0.0912    0.4414 C   0  0  0  0  0  0  0  0  0  0  0  0
    5.9858   -0.2653    0.4158 N   0  0  0  0  0  0  0  0  0  0  0  0
    3.8643   -0.6759   -0.5904 C   0  0  0  0  0  0  0  0  0  0  0  0
    2.5319   -0.4897   -0.5566 C   0  0  0  0  0  0  0  0  0  0  0  0
   -1.3734   -1.9923   -2.3451 H   0  0  0  0  0  0  0  0  0  0  0  0
   -3.4954   -2.8692   -1.2204 H   0  0  0  0  0  0  0  0  0  0  0  0
   -1.5585   -1.6959    3.1437 H   0  0  0  0  0  0  0  0  0  0  0  0
    0.2639   -2.1925   -0.2421 H   0  0  0  0  0  0  0  0  0  0  0  0
    0.1818   -0.0886   -1.5343 H   0  0  0  0  0  0  0  0  0  0  0  0
   -1.6875    0.7758   -2.6666 H   0  0  0  0  0  0  0  0  0  0  0  0
   -3.6603    2.2606   -2.6798 H   0  0  0  0  0  0  0  0  0  0  0  0
   -4.5292    3.0938   -0.5495 H   0  0  0  0  0  0  0  0  0  0  0  0
   -3.4471    2.4580    1.5839 H   0  0  0  0  0  0  0  0  0  0  0  0
   -1.5351    1.0303    1.6599 H   0  0  0  0  0  0  0  0  0  0  0  0
    2.2430    1.4453    2.2905 H   0  0  0  0  0  0  0  0  0  0  0  0
    4.6803    1.1176    2.2481 H   0  0  0  0  0  0  0  0  0  0  0  0
    6.5391    0.1696    1.1694 H   0  0  0  0  0  0  0  0  0  0  0  0
    4.3244   -1.2674   -1.3922 H   0  0  0  0  0  0  0  0  0  0  0  0
    1.9586   -0.9424   -1.3408 H   0  0  0  0  0  0  0  0  0  0  0  0
  1  2  2  0  0  0  0
  1 22  1  0  0  0  0
  2  3  1  0  0  0  0
  2 23  1  0  0  0  0
  3  4  2  0  0  0  0
  4  5  1  0  0  0  0
  4  6  1  0  0  0  0
  5 24  1  0  0  0  0
  6  7  1  0  0  0  0
  6  1  1  0  0  0  0
  6 25  1  6  0  0  0
  7  8  1  0  0  0  0
  7 14  1  0  0  0  0
  7 26  1  6  0  0  0
  8  9  2  0  0  0  0
  9 10  1  0  0  0  0
  9 27  1  0  0  0  0
 10 11  2  0  0  0  0
 10 28  1  0  0  0  0
 11 12  1  0  0  0  0
 11 29  1  0  0  0  0
 12 13  2  0  0  0  0
 12 30  1  0  0  0  0
 13  8  1  0  0  0  0
 13 31  1  0  0  0  0
 14 15  2  3  0  0  0
 15 16  1  0  0  0  0
 16 17  2  0  0  0  0
 16 32  1  0  0  0  0
 17 18  1  0  0  0  0
 17 33  1  0  0  0  0
 18 19  2  3  0  0  0
 18 20  1  0  0  0  0
 19 34  1  0  0  0  0
 20 21  2  0  0  0  0
 20 35  1  0  0  0  0
 21 15  1  0  0  0  0
 21 36  1  0  0  0  0
M  END
$$$$
