
 OpenBabel11102110373D

 12 12  0  0  0  0  0  0  0  0999 V2000
    6.1460    0.3341   -0.4978 H   0  0  0  0  0  0  0  0  0  0  0  0
    6.3993   -0.0641    0.4632 C   0  0  0  0  0  0  0  0  0  0  0  0
    5.4582    0.0130    1.4574 C   0  0  0  0  0  0  0  0  0  0  0  0
    5.8399   -0.4763    2.6974 C   0  0  0  0  0  0  0  0  0  0  0  0
    7.0949   -1.0169    2.9268 C   0  0  0  0  0  0  0  0  0  0  0  0
    7.6612   -0.6018    0.6716 C   0  0  0  0  0  0  0  0  0  0  0  0
    8.0028   -1.0754    1.9002 C   0  0  0  0  0  0  0  0  0  0  0  0
    7.3439   -1.3914    3.9273 H   0  0  0  0  0  0  0  0  0  0  0  0
    9.0018   -1.5093    2.0997 H   0  0  0  0  0  0  0  0  0  0  0  0
    4.5208    0.4118    1.2925 H   0  0  0  0  0  0  0  0  0  0  0  0
    5.1652   -0.4364    3.4773 H   0  0  0  0  0  0  0  0  0  0  0  0
    8.3400   -0.6424   -0.1047 H   0  0  0  0  0  0  0  0  0  0  0  0
  2  6  2  0  0  0  0
  2  1  1  0  0  0  0
  3  4  2  0  0  0  0
  3  2  1  0  0  0  0
  3 10  1  0  0  0  0
  4  5  1  0  0  0  0
  4 11  1  0  0  0  0
  5  7  2  0  0  0  0
  5  8  1  0  0  0  0
  6  7  1  0  0  0  0
  6 12  1  0  0  0  0
  7  9  1  0  0  0  0
M  END
$$$$
