23

C 1.28026198 -0.56713008 -1.03945405
N 0.57977934 -0.53529018 0.27371309
C -0.84996740 -0.85489347 0.14406115
C -1.76444953 0.26244801 -0.43526908
C 0.83400999 0.65982755 1.13476468
H -1.23922735 -1.13965687 1.13772383
H -0.98684848 -1.76601661 -0.46421851
N -3.09874991 -0.05516621 -0.40470380
O -1.35739422 1.31632240 -0.92749301
C 2.81245328 -0.63021952 -0.89145462
H 0.93564076 -1.44745634 -1.60764233
H 0.97295113 0.31852695 -1.62215280
C 1.77638759 0.30328443 2.29567403
H 1.23943917 1.47734038 0.51650447
H -0.11196435 1.05896588 1.53605919
H 3.10806340 -1.47691724 -0.26961516
H 3.28612892 -0.74949034 -1.86729277
H 1.97185358 1.17936947 2.91607581
H 1.33753479 -0.46819385 2.93055800
H -3.43158880 -0.76297959 0.22751143
H -3.74408482 0.65085474 -0.71780738
H 3.20965072 0.28242077 -0.44553309
H 2.73451621 -0.06711829 1.93020491
