23

C 1.52856192 0.15675988 -1.54394534
N 0.64564005 0.24973061 -0.38914880
C -0.56702779 -0.54967359 -0.41370293
C -1.82796727 0.30100786 -0.67301370
C 0.87816860 1.07722644 0.78169049
H -0.68824604 -1.09076533 0.54500846
H -0.51519948 -1.34893178 -1.17112988
N -3.00465634 -0.39252434 -0.56968435
O -1.79956385 1.49544358 -0.97818245
C 2.89412502 -0.43786933 -1.16219220
H 1.06121983 -0.44243127 -2.34317697
H 1.63497274 1.16738476 -1.97534031
C 1.33443115 0.24584585 1.99748487
H 1.62608880 1.84527946 0.52260153
H -0.04657639 1.63808566 1.00315752
H 2.77915021 -1.38349802 -0.62916338
H 3.50777267 -0.61675066 -2.04655370
H 1.48838015 0.88870019 2.86486287
H 0.59382509 -0.50489129 2.27546901
H -3.03686364 -1.25385421 -0.05007269
H -3.85519151 0.13767965 -0.66220432
H 3.44553505 0.24953367 -0.51642164
H 2.27483102 -0.26617680 1.78532890
