23

C 1.20224950 -0.18725418 -0.83018158
N 0.56028034 -0.17553676 0.50837255
C -0.93638233 -0.30935295 0.47962928
C -1.78898727 -0.08034753 -0.81416220
C 1.01533600 0.92425825 1.41815985
H -1.39960569 0.28931066 1.28266424
H -1.16038602 -1.34373166 0.79634270
N -3.14113325 -0.12906435 -0.57346618
O -1.35289241 0.10195576 -1.95191185
C 2.72032464 -0.44509118 -0.75876774
H 0.73610678 -0.98968938 -1.42489009
H 0.97262148 0.75535438 -1.35437190
C 1.95696958 0.38379590 2.50672570
H 1.51187111 1.71159674 0.82683206
H 0.16109733 1.43614667 1.88860788
H 2.93509416 -1.35079419 -0.18922674
H 3.13128074 -0.57609927 -1.76115207
H 2.29135147 1.18848269 3.16338044
H 1.45191543 -0.36350703 3.12100369
H -3.49270296 0.01769905 0.35727328
H -3.75097400 0.06567698 -1.35015095
H 3.24854447 0.38940445 -0.29644243
H 2.84164189 -0.08144605 2.07114403
