23

C 1.27934911 -0.62299993 -1.05765909
N 0.49906149 0.17077171 -0.04937203
C -0.90921703 0.32924942 -0.46843634
C -1.75063636 -0.96201610 -0.31716406
C 1.12714540 1.48611935 0.29789856
H -0.97141951 0.69182678 -1.51029470
H -1.41361755 1.09679446 0.14489562
N -3.02005219 -0.85383146 -0.82503218
O -1.35043597 -1.99119067 0.22664908
C 2.66869087 -1.05091860 -0.54329237
H 0.70365544 -1.53447359 -1.28952962
H 1.36010199 -0.05351885 -1.99963836
C 1.78707337 1.43717554 1.68603858
H 1.86031063 1.77109597 -0.47490786
H 0.37740956 2.29451873 0.27875153
H 2.58377219 -1.57513963 0.41032195
H 3.14676704 -1.72828527 -1.25267532
H 2.24754429 2.39587531 1.92932441
H 1.04990229 1.21230781 2.45881212
H -3.22770326 -0.14349388 -1.50596329
H -3.59085009 -1.68242837 -0.80677699
H 3.33130212 -0.19492731 -0.41185731
H 2.56325318 0.67279658 1.73157567
