23

C 1.225019823732 -0.519002309743 -0.956211313403
N 0.497986288264 0.526023694910 -0.240800940383
C -0.939460456560 0.596904415814 -0.272655597950
C -1.680628493111 -0.720636760378 -0.079938378475
C 1.196394024348 1.770724138466 0.063578425112
H -1.329756876297 1.065532648669 -1.202070668643
H -1.271957199874 1.238704412772 0.550309181367
N -3.034364291226 -0.613450874150 -0.253214754419
O -1.162572215323 -1.779868314192 0.301285342693
C 2.406158154890 -1.063268524419 -0.155086867233
H 0.539098682224 -1.337215064473 -1.150739636196
H 1.586917960551 -0.145490631733 -1.932211029196
C 1.602263383420 1.894186448335 1.535073615329
H 2.086291879109 1.835658957336 -0.573886326258
H 0.565459846144 2.625286139284 -0.216598003742
H 2.046829938764 -1.452721054020 0.798581170311
H 2.896852201887 -1.871775503765 -0.703702207925
H 2.084330882579 2.855961855003 1.732541436892
H 0.722217583018 1.812193048642 2.177265037782
H -3.447736917144 0.141733615499 -0.769099041554
H -3.592168449930 -1.431403808527 -0.084826958412
H 3.154470422624 -0.291994586881 0.040575755674
H 2.289340994914 1.093700672212 1.811708520510
