
 OpenBabel11102110373D

  5  4  0  0  0  0  0  0  0  0999 V2000
   -6.3702    1.0167    1.0634 H   0  0  0  0  0  0  0  0  0  0  0  0
   -6.9528    0.0891    0.8243 C   0  0  0  0  0  0  0  0  0  0  0  0
   -6.7088   -0.6322    1.6504 H   0  0  0  0  0  0  0  0  0  0  0  0
   -6.6528   -0.3090   -0.1225 H   0  0  0  0  0  0  0  0  0  0  0  0
   -8.0032    0.2819    0.7585 H   0  0  0  0  0  0  0  0  0  0  0  0
  2  1  1  0  0  0  0
  2  3  1  0  0  0  0
  2  4  1  0  0  0  0
  2  5  1  0  0  0  0
M  END
$$$$
