24
0 1 C9H12N2O
O                    -1.784323808473     1.087330637414    -0.068079926658
C                    -1.643823808473    -0.142069362586    -0.249479926658
N                    -0.377123808473    -0.727969362586    -0.185979926658
C                     0.838776191527    -0.064869362586     0.102120073342
C                    -0.279223808473    -2.179569362586    -0.446179926658
C                     2.059176191527    -0.613869362586    -0.293079926658
C                     3.330376191527     1.174130637414     0.624620073342
C                     3.280076191527    -0.012669362586    -0.039879926658
C                     2.130876191527     1.754730637414     1.036520073342
C                     0.930476191527     1.136330637414     0.773120073342
C                    -2.887923808473    -0.925869362586    -0.528579926658
H                     0.339276191527    -2.666469362586     0.309520073342
H                     0.177676191527    -2.276269362586    -1.443579926658
H                    -1.295523808473    -2.659469362586    -0.388679926658
H                     2.015676191527    -1.561769362586    -0.823879926658
H                     4.206376191527    -0.503669362586    -0.370979926658
H                     2.175476191527     2.689930637414     1.558020073342
H                     0.027576191527     1.641530637414     1.131020073342
H                    -3.032423808473    -1.759869362586     0.193120073342
H                    -2.729023808473    -1.364969362586    -1.553079926658
N                    -4.026423808473    -0.104069362586    -0.510079926658
H                     4.233976191527     1.633230637414     0.818920073342
H                    -4.151523808473     0.282530637414     0.425520073342
H                    -4.847123808473    -0.654369362586    -0.763079926658
