
     RDKit          3D

 15 15  0  0  0  0  0  0  0  0999 V2000
    2.0259   -0.3040    0.1091 C   0  0  0  0  0  0  0  0  0  0  0  0
    0.5883   -0.0620    0.0676 C   0  0  0  0  0  0  0  0  0  0  0  0
   -1.5620   -0.2724   -0.9758 C   0  0  0  0  0  0  0  0  0  0  0  0
   -2.1892    0.4319    0.0323 C   0  0  0  0  0  0  0  0  0  0  0  0
   -0.1910   -0.5237   -0.9713 C   0  0  0  0  0  0  0  0  0  0  0  0
   -1.3947    0.8870    1.0647 C   0  0  0  0  0  0  0  0  0  0  0  0
   -0.0234    0.6427    1.0812 C   0  0  0  0  0  0  0  0  0  0  0  0
    2.6932   -1.0062   -0.8828 O   0  0  0  0  0  0  0  0  0  0  0  0
    2.7040    0.1331    1.0736 O   0  0  0  0  0  0  0  0  0  0  0  0
    0.2931   -1.0814   -1.7736 H   0  0  0  0  0  0  0  0  0  0  0  0
   -1.8238    1.4454    1.8856 H   0  0  0  0  0  0  0  0  0  0  0  0
    0.6054    0.9986    1.8911 H   0  0  0  0  0  0  0  0  0  0  0  0
   -2.1580   -0.6495   -1.8115 H   0  0  0  0  0  0  0  0  0  0  0  0
   -3.2554    0.6222    0.0199 H   0  0  0  0  0  0  0  0  0  0  0  0
    3.6877   -1.2618   -0.8101 H   0  0  0  0  0  0  0  0  0  0  0  0
  1  8  1  0
  1  9  2  0
  2  7  2  0
  2  1  1  0
  3  4  1  0
  3  5  2  0
  3 13  1  0
  4  6  2  0
  4 14  1  0
  5  2  1  0
  5 10  1  0
  6  7  1  0
  6 11  1  0
  7 12  1  0
  8 15  1  0
M  END
