
     RDKit          3D

  5  4  0  0  0  0  0  0  0  0999 V2000
    0.5159    1.6704   -0.1389 Cl  0  0  0  0  0  0  0  0  0  0  0  0
   -0.0131   -0.0275   -0.0081 C   0  0  0  0  0  0  0  0  0  0  0  0
    1.4183   -1.0466   -0.2855 Cl  0  0  0  0  0  0  0  0  0  0  0  0
   -0.6376   -0.2571    1.6451 Cl  0  0  0  0  0  0  0  0  0  0  0  0
   -1.2834   -0.3391   -1.2125 Cl  0  0  0  0  0  0  0  0  0  0  0  0
  1  2  1  0
  2  3  1  0
  2  4  1  0
  2  5  1  0
M  END
