15

C -1.17461999 -0.88834385 0.55294577
C -1.37025969 0.52208304 0.51712145
C 0.95570424 0.82570517 -0.24635719
C -0.30400029 1.37948263 0.12086765
C 1.13884022 -0.58667616 -0.24860284
C 0.08197304 -1.44235386 0.17527623
H -1.98798832 -1.54412548 0.87015207
H -2.33826289 0.94577923 0.79167535
H -0.45255587 2.46092547 0.09884469
H 2.08817494 -1.01341452 -0.57828531
H 0.23599569 -2.52261802 0.21076826
H 1.78195629 1.48329342 -0.52366794
O -1.23663099 -0.26029204 -3.24202288
H -1.34200535 -0.91577023 -2.55229970
H -0.76793103 0.48436521 -2.86490559
