15

C -1.18836820 -0.85348631 0.30709906
C -1.35020592 0.53687456 0.56934132
C 1.02705434 0.91564311 0.03039193
C -0.24355908 1.42203154 0.42724646
C 1.18533089 -0.47251788 -0.24638893
C 0.07413721 -1.35489471 -0.12063995
H -2.03168498 -1.53485152 0.43567932
H -2.32224855 0.92427990 0.88048800
H -0.36955815 2.48859454 0.62323540
H 2.15807640 -0.86041057 -0.55508328
H 0.18922578 -2.41488847 -0.35529669
H 1.87972901 1.59161535 -0.05909639
O -0.86240096 0.53437263 -3.30503976
H -1.28739622 0.08658646 -2.57334293
H -0.04974157 0.91909138 -2.97708357
