15

C -1.14824445 -0.93575738 0.40305183
C -1.33913570 0.46851104 0.26232200
C 1.08602964 0.76400401 -0.08041728
C -0.22282426 1.31748002 0.01387325
C 1.27569705 -0.64128626 0.05135234
C 0.15753026 -1.49203387 0.28502961
H -2.00249686 -1.58576617 0.60265304
H -2.34091398 0.89449436 0.34499654
H -0.37058672 2.39265981 -0.10502893
H 2.27825279 -1.06666750 -0.02563502
H 0.30125705 -2.57070332 0.37271370
H 1.94379540 1.41742038 -0.25154399
O -0.46334863 -0.39533509 -3.38811142
H -1.07309413 -0.58908746 -2.67593452
H 0.35266255 -0.08600257 -2.99487117
