15

C -1.12252236 -0.85990669 -0.86278695
C -1.35458683 0.51095363 -0.55363868
C 0.93909740 0.69993654 0.33406658
C -0.31812696 1.29521033 0.02876421
C 1.16495039 -0.67580061 0.04216381
C 0.13689877 -1.45371206 -0.56352802
H -1.91013376 -1.45462567 -1.32981596
H -2.32749008 0.96030932 -0.76183846
H -0.48723090 2.35289237 0.23996638
H 2.12571373 -1.13439434 0.28422034
H 0.31457753 -2.50508119 -0.79852733
H 1.72955688 1.29793760 0.79191158
O -1.27544875 -0.97691995 2.99727238
H -1.24299953 -1.54534558 2.22778722
H -0.93767553 -0.11952369 2.73843292
