15

C -1.12772300 -0.89423738 -0.53212474
C -1.31404473 0.46961524 -0.16689463
C 1.13157300 0.77721195 -0.06612657
C -0.18435236 1.30686601 0.05997146
C 1.31736737 -0.58885182 -0.42351868
C 0.18798197 -1.42332562 -0.66136000
H -1.99377300 -1.53370964 -0.71360457
H -2.32268391 0.87352010 -0.06084155
H -0.32794355 2.35484482 0.32971359
H 2.32581418 -0.99695889 -0.51385352
H 0.33115949 -2.46843563 -0.94323304
H 1.99785450 1.41780771 0.11117966
O 0.00577151 -1.01840504 3.16983698
H -0.48590694 -1.57604162 2.56694516
H 0.39348546 -0.30797020 2.65836045
