15

C -1.12757417 -0.86297720 -0.75797538
C -1.35143451 0.50050446 -0.41236501
C 1.03339693 0.74474058 0.16909138
C -0.26748188 1.30881092 0.03522478
C 1.24756877 -0.63052101 -0.13336379
C 0.16824355 -1.43323681 -0.60184598
H -1.94831771 -1.46956582 -1.14583543
H -2.35422971 0.92589982 -0.48770271
H -0.43392488 2.36062375 0.27593828
H 2.23890742 -1.06953518 -0.00500157
H 0.33498902 -2.48518258 -0.84225762
H 1.86678027 1.36673416 0.50171835
O -0.86085555 -0.97399263 3.11391902
H -1.23607238 -1.58272655 2.47775843
H -0.37541516 -0.30764591 2.62714724
