15

C -1.04290698 -0.78141597 -1.00306829
C -1.25211457 0.61636533 -0.82777252
C 0.75872734 0.73919540 0.59591905
C -0.36038706 1.37357773 -0.01537850
C 0.95860563 -0.66162042 0.43431781
C 0.06389880 -1.41987778 -0.37393969
H -1.72978747 -1.36318707 -1.62097177
H -2.09526703 1.10826880 -1.31673059
H -0.53575335 2.43998224 0.13939963
H 1.79701593 -1.15476188 0.93026702
H 0.22723462 -2.49048803 -0.51209728
H 1.46455642 1.32704904 1.18610828
O -2.14959313 -0.67950151 2.70523675
H -1.27425868 -0.29197270 2.69334961
H -2.39539046 -0.86968317 1.79981049
