15

C -1.15398090 -0.79990966 0.06089258
C -1.31763181 0.55268834 0.47516223
C 1.11118860 0.91707427 0.24511607
C -0.18951937 1.41995279 0.53480958
C 1.27717265 -0.44003113 -0.15304645
C 0.14459320 -1.29859279 -0.24506463
H -2.02345922 -1.45484313 -0.02316268
H -2.30695600 0.92403569 0.74990610
H -0.32189898 2.47073329 0.79962875
H 2.27256613 -0.82242645 -0.38756361
H 0.27153294 -2.33874091 -0.55103439
H 1.98085633 1.57170078 0.32862120
O -0.50923726 1.00868152 -3.27943499
H -1.23289561 0.87705770 -2.66676104
H 0.30605929 0.84065969 -2.80655872
