15

C -1.12760979 -0.90127236 0.27814995
C -1.31085946 0.50800311 0.36933558
C 1.12457505 0.83830076 0.15699664
C -0.18476794 1.37786348 0.30845783
C 1.30611136 -0.57004588 0.04820344
C 0.17987615 -1.43983932 0.10830132
H -1.98964941 -1.56856444 0.33689585
H -2.31507053 0.92179036 0.48084629
H -0.32569395 2.45822973 0.37710884
H 2.30867481 -0.98334329 -0.07927258
H 0.31888327 -2.51937933 0.02406356
H 1.98942990 1.50406818 0.12757525
O -1.32778079 0.35949412 -3.43479808
H -1.20002508 0.19350429 -2.50010153
H -0.51151356 0.71312058 -3.78731237
