15

C -1.08422604 -0.96845956 0.18056657
C -1.25898842 0.43838312 0.04386785
C 1.18579706 0.75173580 0.14984403
C -0.12349171 1.29798827 0.02262313
C 1.35825341 -0.65124526 0.32415751
C 0.22373206 -1.51230523 0.33129661
H -1.95245534 -1.63036895 0.16815839
H -2.26319320 0.85815187 -0.04216589
H -0.25655566 2.37579666 -0.09008008
H 2.35975216 -1.06615501 0.45472457
H 0.35635409 -2.58911719 0.45304180
H 2.05711013 1.40849010 0.11193384
O 0.25931272 -0.46614979 -3.38299834
H -0.49033771 -0.12353029 -2.89618261
H 0.93732646 -0.69517452 -2.74727738
