15

C -1.16182248 -0.85654614 -0.52803965
C -1.33761389 0.55533243 -0.59389871
C 1.04697508 0.87776075 -0.05071796
C -0.22870581 1.42198178 -0.37467689
C 1.21830023 -0.53365759 0.03352639
C 0.11324914 -1.40082216 -0.20213327
H -2.00398390 -1.52149712 -0.72917342
H -2.32274366 0.97333434 -0.81057405
H -0.35678280 2.50322904 -0.45561890
H 2.19672079 -0.95124079 0.27893142
H 0.24408289 -2.48260719 -0.13312635
H 1.89377589 1.54213435 0.13313176
O -0.89784099 0.13652180 3.20688012
H -1.27466969 -0.52528794 2.62697846
H -0.32055082 0.68940443 2.68002106
