15

C -1.16050976 -0.91767415 0.60708107
C -1.37483583 0.45469026 0.29086978
C 1.00649730 0.68853691 -0.30934751
C -0.29265478 1.25624242 -0.17319963
C 1.21637412 -0.68857121 -0.01227720
C 0.13980784 -1.48376160 0.47531013
H -1.99298909 -1.53581679 0.94951367
H -2.36888387 0.89200257 0.40310604
H -0.45891929 2.30575221 -0.42464832
H 2.20140796 -1.13534772 -0.16157801
H 0.31176016 -2.52646390 0.74937984
H 1.84169563 1.30925797 -0.63958464
O -0.84151290 -0.99892922 -3.24283241
H -1.00837109 -1.50678721 -2.44859650
H -0.41047639 -0.18509055 -2.98168629
