15

C -1.15179773 -0.83024225 -0.99199029
C -1.40679110 0.46431161 -0.45567428
C 0.83806392 0.48181529 0.56640057
C -0.41552205 1.11624817 0.33209869
C 1.08323730 -0.82316885 0.05050624
C 0.10374878 -1.46204951 -0.76234713
H -1.91966332 -1.33843122 -1.57831397
H -2.36223001 0.95619092 -0.64864999
H -0.61688331 2.10196360 0.75618514
H 2.01981284 -1.33460980 0.28126952
H 0.31571544 -2.43413283 -1.21165940
H 1.61168640 0.99619962 1.13987742
O -1.53721857 -1.65863754 2.75350200
H -1.16613324 -2.12316019 2.00331989
H -1.46144536 -0.72036701 2.57992559
