15

C -1.15056293 -0.93803966 0.47754829
C -1.34347513 0.44907688 0.21908248
C 1.07872494 0.71523375 -0.16472694
C -0.23210910 1.27077197 -0.12516637
C 1.26902769 -0.67609769 0.07253860
C 0.15623786 -1.50008427 0.40676562
H -2.00420524 -1.56984454 0.73123958
H -2.34305438 0.88305766 0.28590540
H -0.38589241 2.32567511 -0.36067215
H 2.26724161 -1.11182656 -0.00260469
H 0.30550555 -2.56256701 0.60860391
H 1.93757214 1.35635483 -0.37314122
O -0.43661890 -0.83191032 -3.34929405
H -1.03104310 -1.00379542 -2.61889161
H 0.34723140 -0.41407474 -2.99273684
