15

C -1.16688722 -0.90314299 0.40735807
C -1.35199836 0.50902295 0.42378657
C 1.03752672 0.82853470 -0.09831317
C -0.25120822 1.37491269 0.16435731
C 1.21746548 -0.58364229 -0.13915041
C 0.11664851 -1.44966754 0.11936193
H -2.00856305 -1.56641198 0.61642064
H -2.33792176 0.92825547 0.63442573
H -0.39570301 2.45719462 0.16510468
H 2.19890492 -1.00239654 -0.37050425
H 0.25724241 -2.53223084 0.09535916
H 1.88798555 1.49204286 -0.26679084
O -0.84403276 -0.06154605 -3.34525630
H -1.35222319 -0.45141613 -2.63379413
H -0.07265599 0.35242106 -2.95791500
