15

C -1.14283497 -0.86140348 -0.49520155
C -1.33337591 0.54537223 -0.38116131
C 1.10012380 0.85424639 -0.12002518
C -0.20972096 1.40510384 -0.21607720
C 1.28554294 -0.55627557 -0.18735574
C 0.16438742 -1.41391204 -0.37737152
H -1.99831902 -1.51525068 -0.67608240
H -2.34076919 0.96441690 -0.41693811
H -0.35299491 2.48614799 -0.16378779
H 2.28677174 -0.98081142 -0.09180018
H 0.30793111 -2.49478854 -0.43266257
H 1.96219409 1.51294508 0.00319668
O -0.49180664 -0.33174650 3.25500713
H -0.96900020 -0.92808338 2.67828570
H 0.04026070 0.24207918 2.70348403
