15

C -1.12836273 -0.84343924 -0.42479129
C -1.31203137 0.56863435 -0.39095177
C 1.12864399 0.88239553 -0.21614450
C -0.18304047 1.43167388 -0.29336869
C 1.31104395 -0.52995607 -0.23246189
C 0.18238809 -1.39297740 -0.33309889
H -1.99210918 -1.50432750 -0.52174471
H -2.31817219 0.98983964 -0.43856159
H -0.32325057 2.51436520 -0.27848815
H 2.31610203 -0.95134593 -0.16722051
H 0.32269276 -2.47568822 -0.33875528
H 1.99456803 1.54375294 -0.14620511
O -0.55168083 -0.27794112 3.24079986
H -1.01682002 -0.86021847 2.64030187
H 0.00460851 0.29716241 2.71514065
