15

C -1.10774875 -0.84176849 -0.86861358
C -1.29099872 0.56785664 -0.77593160
C 0.86999406 0.77159868 0.39553320
C -0.29624590 1.37579539 -0.15488930
C 1.05815406 -0.63662495 0.29369092
C 0.07521781 -1.44175095 -0.34967080
H -1.87487167 -1.46225850 -1.33602361
H -2.19440819 1.02908810 -1.17977642
H -0.42688539 2.45854142 -0.10211661
H 1.95526572 -1.09908636 0.71000130
H 0.22985737 -2.51811653 -0.44651731
H 1.61867216 1.38749236 0.89750959
O -1.74294085 -0.57176779 2.90661490
H -1.36423046 -1.32771399 2.45794898
H -1.57425124 0.20064498 2.36669033
