15

C -1.17199578 -0.92616685 0.59719970
C -1.38003759 0.41872154 0.17665402
C 1.02254374 0.62926225 -0.33983706
C -0.27767441 1.20557570 -0.26388737
C 1.22593164 -0.72395639 0.05532213
C 0.12803839 -1.50272754 0.52111946
H -2.00872626 -1.51419178 0.97943049
H -2.38484433 0.84562224 0.19017951
H -0.42906689 2.25085333 -0.54081669
H 2.22359386 -1.16418229 0.00142169
H 0.28341160 -2.54116871 0.82046963
H 1.86334538 1.22457931 -0.70117797
O -0.78193900 -1.18530799 -3.25619209
H -0.80907943 -1.80254264 -2.52501668
H -0.56892091 -0.32244020 -2.90041878
