15

C -1.16899528 -0.83802677 -0.43218564
C -1.32257046 0.56011025 -0.65659466
C 1.06308298 0.90659498 -0.13365966
C -0.19940255 1.42789319 -0.53721306
C 1.20790644 -0.48630671 0.12602489
C 0.09134123 -1.35844045 -0.02122799
H -2.01628976 -1.51107667 -0.57747408
H -2.30154586 0.96719933 -0.91715092
H -0.30599686 2.49201617 -0.75688956
H 2.17467865 -0.88514550 0.43948520
H 0.20121766 -2.42558993 0.18154259
H 1.92002512 1.57417927 -0.02381321
O -0.94325093 0.55192686 3.15704337
H -1.16422066 -0.20287209 2.61139943
H -0.42758974 1.15557806 2.62222330
