15

C -1.13687479 -0.86968550 -0.77081371
C -1.34948153 0.52681587 -0.58749182
C 0.95179406 0.76549671 0.26824363
C -0.29944797 1.34724857 -0.08408750
C 1.15674479 -0.63468158 0.10603841
C 0.11950640 -1.44875066 -0.43243960
H -1.93672003 -1.49569414 -1.17137602
H -2.31802862 0.96797420 -0.83046322
H -0.45416462 2.42194248 0.03126664
H 2.10801831 -1.08452110 0.39682478
H 0.28847272 -2.51616945 -0.58788753
H 1.75359517 1.39250874 0.66334601
O -1.31467336 -0.69020219 3.04702374
H -1.40479756 -1.32693989 2.33798958
H -0.85555298 0.07269794 2.69533662
