15

C -1.18243527 -0.92571223 0.61750849
C -1.40292644 0.45724964 0.35732143
C 0.94589405 0.69739936 -0.35628099
C -0.34101133 1.26711715 -0.13770717
C 1.15515724 -0.69387530 -0.13415904
C 0.10294759 -1.49662630 0.39228793
H -1.99927924 -1.54710447 0.98978534
H -2.38650061 0.89578867 0.53709465
H -0.51369642 2.32430075 -0.34942507
H 2.12070997 -1.14519218 -0.37080005
H 0.28259419 -2.54798870 0.62549872
H 1.77283346 1.32710381 -0.69027867
O -1.14619292 -0.84266196 -3.23540281
H -0.98712969 -1.42972137 -2.49621016
H -0.98638459 0.05185313 -2.93478259
