15

C -1.12825917 -0.84433955 -0.90742073
C -1.38002333 0.48324897 -0.45691653
C 0.92386191 0.62553832 0.41278198
C -0.34936039 1.22347241 0.19009028
C 1.16901119 -0.70942502 -0.01914937
C 0.14255659 -1.44506927 -0.67807325
H -1.90934103 -1.40046858 -1.42953846
H -2.36375589 0.93272431 -0.60599167
H -0.53532723 2.24922168 0.51466751
H 2.14378640 -1.16904190 0.15537463
H 0.33038468 -2.46927441 -1.00658361
H 1.71247247 1.19035491 0.91403529
O -1.22498378 -1.38589243 2.91148985
H -1.36663082 -1.80751865 2.06386292
H -0.72981159 -0.58160079 2.75582117
