15

C -1.15480046 -0.91100438 0.55888340
C -1.36053662 0.48706839 0.38073907
C 1.01492161 0.75976409 -0.22672489
C -0.27486388 1.32305424 -0.00901452
C 1.21080423 -0.64405691 -0.08835443
C 0.13240047 -1.47560067 0.32920438
H -1.98307695 -1.54948395 0.87309308
H -2.35060932 0.91808517 0.54158048
H -0.43112733 2.39553894 -0.14082162
H 2.18659774 -1.08339976 -0.30451736
H 0.29395259 -2.54529377 0.47496350
H 1.85376114 1.40409337 -0.49687081
O -0.85932262 -0.61554450 -3.29842713
H -1.24191840 -1.05993855 -2.54177949
H -0.22779220 0.02475827 -2.97044364
