15

C -1.05536057 -0.76740025 0.13065274
C -1.23382064 0.64402607 0.07255874
C 1.21244586 0.95471333 0.13880409
C -0.09952960 1.50530554 0.06956125
C 1.39093455 -0.45760390 0.18481421
C 0.25691780 -1.31874631 0.17702878
H -1.92417408 -1.42900149 0.13330924
H -2.24026898 1.06527188 0.03040181
H -0.23570000 2.58720064 0.01398048
H 2.39689929 -0.87991662 0.22709306
H 0.39190178 -2.40190325 0.20387124
H 2.08152855 1.61516967 0.15901659
O -1.67684196 -2.69862709 -2.81783696
H -1.06464517 -3.13092503 -3.41304247
H -1.26570682 -1.89563320 -2.49576281
