15

  C     -1.10816    -0.84622    -0.04989
  C     -1.28782     0.53678    -0.01013
  C      1.10819     0.84624     0.04989
  C     -0.17961     1.38299     0.03977
  C      1.28778    -0.53678     0.01013
  C      0.17963    -1.38300    -0.03977
  H     -1.97159    -1.50554    -0.08877
  H     -2.29122     0.95488    -0.01802
  H     -0.31955     2.46052     0.07074
  H      2.29117    -0.95492     0.01801
  H      0.31954    -2.46055    -0.07074
  H      1.97168     1.50548     0.08877
  O     -0.99378    -0.14029    -1.97987
  H     -1.45172    -0.98566    -2.06889
  H     -0.74615     0.05411    -2.86972
