15

C -1.08685601 -0.92966654 0.12676716
C -1.26751471 0.48282780 0.10609848
C 1.17640013 0.79697237 0.22808667
C -0.13517453 1.34592475 0.14281955
C 1.35602838 -0.61524496 0.26893501
C 0.22542922 -1.47877614 0.19990690
H -1.95393088 -1.59192914 0.08680173
H -2.27389463 0.90421963 0.06409686
H -0.27227590 2.42837276 0.10435513
H 2.35987962 -1.03592731 0.35545794
H 0.36434108 -2.56161067 0.20181018
H 2.04376695 1.45919816 0.26184501
O 0.27573418 -0.09581401 -3.39810823
H -0.51541676 0.02089203 -2.87195742
H 1.01187384 -0.20139872 -2.79540496
