15

C -1.08402999 -0.88717991 -0.87051171
C -1.20449137 0.51627068 -1.07974864
C 0.81791450 0.89314821 0.28048589
C -0.27289742 1.40831455 -0.47617892
C 0.92368692 -0.50803437 0.51184032
C -0.01904390 -1.39955578 -0.07581471
H -1.80699209 -1.57020181 -1.32082627
H -2.00942316 0.90848767 -1.70420981
H -0.39705885 2.48672008 -0.59130246
H 1.72589123 -0.89900844 1.14061280
H 0.07459131 -2.47548328 0.08338724
H 1.57472121 1.57163976 0.67867175
O -2.19736695 0.16262433 2.65671712
H -2.48231366 -0.31409818 1.87702905
H -1.33479779 0.53439650 2.47135836
