15

C -1.15854791 -0.83932694 0.81464032
C -1.40671915 0.53442213 0.53212849
C 0.74593055 0.67708439 -0.66469193
C -0.45808648 1.29037387 -0.21449234
C 0.98194952 -0.70316468 -0.40447476
C 0.03537767 -1.45838488 0.34559228
H -1.88287924 -1.41808788 1.39115069
H -2.32439140 1.00827974 0.88650239
H -0.65468626 2.33963931 -0.44327556
H 1.88744251 -1.18303126 -0.78110400
H 0.22477424 -2.51190716 0.56057268
H 1.48861553 1.26563382 -1.20692476
O -1.86593684 -0.96777636 -2.98057849
H -1.07657816 -0.42817923 -2.93471683
H -2.10168457 -1.21364486 -2.08587817
