15

C -1.06980544 -0.76315241 0.12926944
C -1.23989441 0.65027700 0.10881275
C 1.20949766 0.94408842 0.09811197
C -0.10017386 1.50404441 0.08678386
C 1.37905532 -0.47006469 0.10913869
C 0.23938578 -1.32334409 0.14165780
H -1.94274132 -1.41964823 0.12884508
H -2.24400274 1.07905310 0.11044761
H -0.23055063 2.58771458 0.06144766
H 2.38247641 -0.89999136 0.09289575
H 0.36777213 -2.40691856 0.17737877
H 2.08327470 1.59880602 0.10056658
O -2.12775339 -2.64896046 -2.68520487
H -1.69018518 -3.14836945 -3.37454200
H -1.58177503 -1.89160428 -2.47115910
