15

C -1.18358098 -0.87962956 0.50369639
C -1.37482055 0.53179555 0.50417746
C 0.96142981 0.84873589 -0.22045424
C -0.30191946 1.39620240 0.14312125
C 1.14261820 -0.56364169 -0.25240908
C 0.07524016 -1.42741728 0.12539585
H -2.00174342 -1.54120329 0.79491116
H -2.34417977 0.95076650 0.78086049
H -0.44814306 2.47824996 0.14586500
H 2.09937312 -0.98414099 -0.56793125
H 0.22265417 -2.50922558 0.12585067
H 1.79222425 1.51094403 -0.47166142
O -1.17761073 -0.14982479 -3.29264890
H -1.24414361 -0.86682818 -2.66187826
H -0.78281812 0.59714705 -2.84244512
