15

C -1.13122474 -0.84597868 -0.37467362
C -1.31173555 0.56635624 -0.41174396
C 1.12786134 0.88365335 -0.22905417
C -0.18163284 1.43100774 -0.34644442
C 1.30741604 -0.52844348 -0.17860968
C 0.17784499 -1.39314539 -0.24939868
H -1.99611605 -1.50893087 -0.44236924
H -2.31647164 0.98672861 -0.48764523
H -0.31965390 2.51333068 -0.38605833
H 2.31114075 -0.94811331 -0.08680382
H 0.31582231 -2.47539909 -0.20738564
H 1.99436561 1.54609929 -0.17980962
O -0.59510968 0.11931759 3.25817174
H -1.04928984 -0.53707289 2.72996987
H -0.02482681 0.61863021 2.67336480
