15

C -1.12463754 -0.88381408 -0.75908648
C -1.36026807 0.36846578 -0.12306096
C 1.06133268 0.62142238 0.27615835
C -0.26883226 1.11292698 0.40891416
C 1.29727420 -0.62914780 -0.36271061
C 0.20361818 -1.38547696 -0.87336187
H -1.96158613 -1.45970493 -1.15898957
H -2.37705827 0.75834148 -0.04406387
H -0.45181689 2.05995395 0.92030180
H 2.31646272 -1.00819286 -0.46111925
H 0.38334637 -2.35068135 -1.35066352
H 1.89973334 1.20365892 0.66363870
O -0.41673366 -1.85576724 2.88749255
H -1.15092444 -1.62255336 2.31928928
H 0.38466979 -1.53750091 2.47171129
