15

C -1.13862061 -0.84155277 -0.77607548
C -1.28844214 0.57474278 -0.80036892
C 0.89352349 0.82463587 0.32268887
C -0.28021567 1.40718091 -0.23549692
C 1.04236403 -0.59170703 0.34769636
C 0.04571701 -1.42257011 -0.23949891
H -1.93294207 -1.48104867 -1.16616755
H -2.17581828 1.02203036 -1.25273036
H -0.40684852 2.49164704 -0.23061016
H 1.91896919 -1.04007107 0.81932337
H 0.19093564 -2.50388722 -0.28129213
H 1.68004868 1.46310984 0.72997654
O -1.74800977 -0.30159004 2.95122297
H -1.53632133 -1.10715665 2.47987885
H -1.45594966 0.43427677 2.41296349
