15

C -1.09863749 -0.82050651 -0.99614005
C -1.34868638 0.51978448 -0.58414565
C 0.82921530 0.57027957 0.57360661
C -0.38486932 1.21496996 0.20073310
C 1.09257151 -0.75923402 0.13588880
C 0.12066076 -1.46099978 -0.63317035
H -1.84129670 -1.35739902 -1.58970796
H -2.27825259 1.01500069 -0.87152423
H -0.57583656 2.24280484 0.51578213
H 2.04051524 -1.23894745 0.38768762
H 0.30911821 -2.49024897 -0.94438733
H 1.55705684 1.09495273 1.19563136
O -1.65972753 -1.34011438 2.78906411
H -0.83064757 -1.64577213 2.42073134
H -1.99660375 -0.65264000 2.21440049
