15

C -1.15237093 -0.86072572 0.16108980
C -1.32142305 0.52501545 0.44263393
C 1.10321071 0.87848815 0.15758032
C -0.19848874 1.40026101 0.40667467
C 1.27706400 -0.51316134 -0.08947130
C 0.14814477 -1.38142278 -0.09592952
H -2.01931905 -1.52396521 0.14043498
H -2.31058050 0.91557935 0.68958309
H -0.33555380 2.47138527 0.56708186
H 2.27577457 -0.91475328 -0.27183879
H 0.27930072 -2.44609391 -0.29855923
H 1.96737924 1.54567330 0.15516445
O -0.51138508 0.68929950 -3.32679072
H -1.21411171 0.57404604 -2.68707290
H 0.32074886 0.56841417 -2.86907064
