15

C -1.17631961 -0.84876892 -0.51276218
C -1.30789768 0.54270115 -0.78728646
C 1.00049818 0.91605717 -0.00288038
C -0.21753307 1.42427894 -0.53788564
C 1.12847172 -0.47352296 0.28209309
C 0.04163506 -1.35677197 0.02293625
H -2.00909319 -1.52558437 -0.71396225
H -2.24461468 0.93389378 -1.18852769
H -0.31517616 2.48925531 -0.75780541
H 2.05974016 -0.86168506 0.69907964
H 0.14324815 -2.42311691 0.23426411
H 1.83673238 1.59133461 0.18766789
O -1.34740657 0.56848783 3.06419147
H -1.47267574 -0.22275623 2.54015403
H -0.81121896 1.17423761 2.55223354
