15

C -1.07715888 -0.84440589 0.03781778
C -1.27102380 0.54676524 0.27373761
C 1.16750168 0.84970329 0.49457305
C -0.14788323 1.39627850 0.48789456
C 1.36087600 -0.54320417 0.26881119
C 0.23911431 -1.38884317 0.03282832
H -1.93690948 -1.49388765 -0.13878263
H -2.28043546 0.96237172 0.29207445
H -0.29531787 2.46651279 0.64540182
H 2.36871918 -0.96298160 0.27766702
H 0.38803616 -2.45443643 -0.15239741
H 2.02731599 1.49857327 0.67276102
O 0.28445484 0.71391495 -3.23679117
H -0.52869193 0.56404935 -2.75446500
H 1.00979249 0.61762982 -2.61962061
