
     RDKit          3D

 74 78  0  0  0  0  0  0  0  0999 V2000
   -3.6886   -6.4015    0.2302 C   0  0  0  0  0  0  0  0  0  0  0  0
   -3.5979   -5.6057    1.3480 C   0  0  0  0  0  0  0  0  0  0  0  0
   -3.6641   -4.2182    1.2513 C   0  0  0  0  0  0  0  0  0  0  0  0
   -3.8214   -3.6694    0.0256 C   0  0  0  0  0  0  0  0  0  0  0  0
   -3.9286   -2.2276   -0.1530 C   0  0  0  0  0  0  0  0  0  0  0  0
   -4.8497   -1.5512    0.4866 C   0  0  0  0  0  0  0  0  0  0  0  0
   -5.8702   -2.0095    1.4101 C   0  0  0  0  0  0  0  0  0  0  0  0
   -6.0973   -3.1873    1.7728 O   0  0  0  0  0  0  0  0  0  0  0  0
   -6.5819   -0.8360    1.8314 N   0  0  0  0  0  0  0  0  0  0  0  0
   -6.0430    0.3136    1.2058 C   0  0  0  0  0  0  0  0  0  0  0  0
   -6.3781    1.6706    1.2758 C   0  0  0  0  0  0  0  0  0  0  0  0
   -5.6869    2.6091    0.5473 C   0  0  0  0  0  0  0  0  0  0  0  0
   -4.6394    2.2491   -0.2782 C   0  0  0  0  0  0  0  0  0  0  0  0
   -3.9202    3.2570   -1.0457 C   0  0  0  0  0  0  0  0  0  0  0  0
   -2.9736    2.9249   -1.7908 O   0  0  0  0  0  0  0  0  0  0  0  0
   -4.2854    4.5730   -0.9484 O   0  0  0  0  0  0  0  0  0  0  0  0
   -3.6674    5.6356   -1.6397 C   0  0  0  0  0  0  0  0  0  0  0  0
   -4.3232    0.8963   -0.3323 C   0  0  0  0  0  0  0  0  0  0  0  0
   -5.0035   -0.0743    0.3921 C   0  0  0  0  0  0  0  0  0  0  0  0
   -2.9801   -1.6824   -1.0599 N   0  0  0  0  0  0  0  0  0  0  0  0
   -1.6518   -1.4790   -0.6410 C   0  0  0  0  0  0  0  0  0  0  0  0
   -0.7297   -1.0966   -1.6044 C   0  0  0  0  0  0  0  0  0  0  0  0
    0.6090   -0.8820   -1.2507 C   0  0  0  0  0  0  0  0  0  0  0  0
    1.0527   -1.0352    0.0289 C   0  0  0  0  0  0  0  0  0  0  0  0
    2.3589   -0.8172    0.4341 N   0  0  0  0  0  0  0  0  0  0  0  0
    3.3268   -0.0867   -0.2663 C   0  0  0  0  0  0  0  0  0  0  0  0
    3.1990    0.2853   -1.5769 O   0  0  0  0  0  0  0  0  0  0  0  0
    4.4550    0.2883    0.3547 C   0  0  0  0  0  0  0  0  0  0  0  0
    5.4420    1.0188   -0.3343 N   0  0  0  0  0  0  0  0  0  0  0  0
    6.7692    0.4236   -0.3886 C   0  0  0  0  0  0  0  0  0  0  0  0
    7.8491    1.4734   -0.3085 C   0  0  0  0  0  0  0  0  0  0  0  0
    7.3231    2.7882   -0.0383 N   0  0  0  0  0  4  0  0  0  0  0  0
    6.9775    2.9207    1.3555 C   0  0  0  0  0  0  0  0  0  0  0  0
    6.3068    3.2302   -0.9371 C   0  0  0  0  0  0  0  0  0  0  0  0
    5.1321    2.2751   -0.9362 C   0  0  0  0  0  0  0  0  0  0  0  0
    2.7880   -1.3726    1.7346 C   0  0  0  0  0  0  0  0  0  0  0  0
    0.0921   -1.4220    0.9794 C   0  0  0  0  0  0  0  0  0  0  0  0
   -1.2209   -1.6348    0.6392 C   0  0  0  0  0  0  0  0  0  0  0  0
   -3.9140   -4.4470   -1.1089 C   0  0  0  0  0  0  0  0  0  0  0  0
   -3.8462   -5.8002   -0.9895 C   0  0  0  0  0  0  0  0  0  0  0  0
   -3.6355   -7.4970    0.3152 H   0  0  0  0  0  0  0  0  0  0  0  0
   -3.4719   -6.0486    2.3368 H   0  0  0  0  0  0  0  0  0  0  0  0
   -3.5596   -3.6488    2.1757 H   0  0  0  0  0  0  0  0  0  0  0  0
   -7.3907   -0.8875    2.5187 H   0  0  0  0  0  0  0  0  0  0  0  0
   -7.1922    1.9708    1.9136 H   0  0  0  0  0  0  0  0  0  0  0  0
   -5.9259    3.6823    0.5791 H   0  0  0  0  0  0  0  0  0  0  0  0
   -2.5966    5.7739   -1.3551 H   0  0  0  0  0  0  0  0  0  0  0  0
   -4.1651    6.5827   -1.2746 H   0  0  0  0  0  0  0  0  0  0  0  0
   -3.7871    5.5939   -2.7316 H   0  0  0  0  0  0  0  0  0  0  0  0
   -3.5128    0.6317   -0.9747 H   0  0  0  0  0  0  0  0  0  0  0  0
   -3.2752   -1.4509   -2.0133 H   0  0  0  0  0  0  0  0  0  0  0  0
   -0.9860   -0.9498   -2.6309 H   0  0  0  0  0  0  0  0  0  0  0  0
    1.2841   -0.6003   -2.0758 H   0  0  0  0  0  0  0  0  0  0  0  0
    2.7185    1.1935   -1.7280 H   0  0  0  0  0  0  0  0  0  0  0  0
    4.5758    0.0168    1.4089 H   0  0  0  0  0  0  0  0  0  0  0  0
    6.8755   -0.3340    0.4090 H   0  0  0  0  0  0  0  0  0  0  0  0
    6.8699   -0.0915   -1.3597 H   0  0  0  0  0  0  0  0  0  0  0  0
    8.4940    1.2144    0.5755 H   0  0  0  0  0  0  0  0  0  0  0  0
    8.5056    1.5094   -1.1800 H   0  0  0  0  0  0  0  0  0  0  0  0
    8.1517    3.4446   -0.1908 H   0  0  0  0  0  0  0  0  0  0  0  0
    7.5990    2.2302    1.9418 H   0  0  0  0  0  0  0  0  0  0  0  0
    5.9136    2.6157    1.4444 H   0  0  0  0  0  0  0  0  0  0  0  0
    7.1688    3.9474    1.7261 H   0  0  0  0  0  0  0  0  0  0  0  0
    6.7583    3.2887   -1.9520 H   0  0  0  0  0  0  0  0  0  0  0  0
    5.9870    4.2330   -0.6596 H   0  0  0  0  0  0  0  0  0  0  0  0
    4.2411    2.7061   -0.4461 H   0  0  0  0  0  0  0  0  0  0  0  0
    4.8457    2.1152   -2.0190 H   0  0  0  0  0  0  0  0  0  0  0  0
    2.1284   -2.2045    2.0176 H   0  0  0  0  0  0  0  0  0  0  0  0
    3.8410   -1.7808    1.6189 H   0  0  0  0  0  0  0  0  0  0  0  0
    2.8032   -0.5934    2.4958 H   0  0  0  0  0  0  0  0  0  0  0  0
    0.3244   -1.5591    2.0246 H   0  0  0  0  0  0  0  0  0  0  0  0
   -1.9511   -1.9290    1.3835 H   0  0  0  0  0  0  0  0  0  0  0  0
   -4.0377   -4.0394   -2.0995 H   0  0  0  0  0  0  0  0  0  0  0  0
   -3.9165   -6.4318   -1.8693 H   0  0  0  0  0  0  0  0  0  0  0  0
  1  2  2  0
  2  3  1  0
  3  4  2  0
  4  5  1  0
  5  6  2  3
  6  7  1  0
  7  8  2  0
  7  9  1  0
  9 10  1  0
 10 11  2  0
 11 12  1  0
 12 13  2  0
 13 14  1  0
 14 15  2  0
 14 16  1  0
 16 17  1  0
 13 18  1  0
 18 19  2  0
  5 20  1  0
 20 21  1  0
 21 22  2  0
 22 23  1  0
 23 24  2  0
 24 25  1  0
 25 26  1  0
 26 27  1  0
 26 28  2  3
 28 29  1  0
 29 30  1  0
 30 31  1  0
 31 32  1  0
 32 33  1  0
 32 34  1  0
 34 35  1  0
 25 36  1  0
 24 37  1  0
 37 38  2  0
  4 39  1  0
 39 40  2  0
 40  1  1  0
 19  6  1  0
 38 21  1  0
 19 10  1  0
 35 29  1  0
  1 41  1  0
  2 42  1  0
  3 43  1  0
  9 44  1  0
 11 45  1  0
 12 46  1  0
 17 47  1  0
 17 48  1  0
 17 49  1  0
 18 50  1  0
 20 51  1  0
 22 52  1  0
 23 53  1  0
 27 54  1  0
 28 55  1  0
 30 56  1  0
 30 57  1  0
 31 58  1  0
 31 59  1  0
 32 60  1  0
 33 61  1  0
 33 62  1  0
 33 63  1  0
 34 64  1  0
 34 65  1  0
 35 66  1  0
 35 67  1  0
 36 68  1  0
 36 69  1  0
 36 70  1  0
 37 71  1  0
 38 72  1  0
 39 73  1  0
 40 74  1  0
M  CHG  1  32   1
M  END
