
 OpenBabel06082209483D

 74 78  0  0  0  0  0  0  0  0999 V2000
   -3.4982   -5.5085    3.6362 C   0  0  0  0  0  0  0  0  0  0  0  0
   -4.0009   -5.5263    2.3529 C   0  0  0  0  0  0  0  0  0  0  0  0
   -4.1474   -4.3753    1.6126 C   0  0  0  0  0  0  0  0  0  0  0  0
   -3.7922   -3.1277    2.1282 C   0  0  0  0  0  0  0  0  0  0  0  0
   -3.9092   -1.9233    1.3087 C   0  0  0  0  0  0  0  0  0  0  0  0
   -4.6320   -0.9157    1.7479 C   0  0  0  0  0  0  0  0  0  0  0  0
   -5.3943   -0.7650    2.9774 C   0  0  0  0  0  0  0  0  0  0  0  0
   -5.5202   -1.6334    3.8780 O   0  0  0  0  0  0  0  0  0  0  0  0
   -5.9879    0.5362    3.0018 N   0  0  0  0  0  0  0  0  0  0  0  0
   -5.5997    1.1829    1.8025 C   0  0  0  0  0  0  0  0  0  0  0  0
   -5.9032    2.4600    1.3268 C   0  0  0  0  0  0  0  0  0  0  0  0
   -5.4155    2.8940    0.1155 C   0  0  0  0  0  0  0  0  0  0  0  0
   -4.6157    2.1085   -0.6813 C   0  0  0  0  0  0  0  0  0  0  0  0
   -4.0877    2.5452   -1.9675 C   0  0  0  0  0  0  0  0  0  0  0  0
   -3.3690    1.7749   -2.6350 O   0  0  0  0  0  0  0  0  0  0  0  0
   -4.3604    3.7998   -2.4783 O   0  0  0  0  0  0  0  0  0  0  0  0
   -3.8919    4.2886   -3.7000 C   0  0  0  0  0  0  0  0  0  0  0  0
   -4.3241    0.8310   -0.1842 C   0  0  0  0  0  0  0  0  0  0  0  0
   -4.7996    0.3730    1.0248 C   0  0  0  0  0  0  0  0  0  0  0  0
   -3.2105   -1.9532    0.0679 N   0  0  0  0  0  0  0  0  0  0  0  0
   -1.7889   -1.7391   -0.0213 C   0  0  0  0  0  0  0  0  0  0  0  0
   -1.0098   -1.4533    1.0686 C   0  0  0  0  0  0  0  0  0  0  0  0
    0.3645   -1.2550    0.9508 C   0  0  0  0  0  0  0  0  0  0  0  0
    0.9952   -1.3420   -0.2902 C   0  0  0  0  0  0  0  0  0  0  0  0
    2.3978   -1.1384   -0.3898 N   0  0  0  0  0  0  0  0  0  0  0  0
    2.9783   -0.0903   -1.1460 C   0  0  0  0  0  0  0  0  0  0  0  0
    2.2069    0.6892   -1.7556 O   0  0  0  0  0  0  0  0  0  0  0  0
    4.4370    0.1100   -1.2375 C   0  0  0  0  0  0  0  0  0  0  0  0
    4.8257    1.2329   -2.0522 N   0  0  0  0  0  0  0  0  0  0  0  0
    4.4986    2.5143   -1.5150 C   0  0  0  0  0  0  0  0  0  0  0  0
    5.4937    3.0295   -0.5241 C   0  0  0  0  0  0  0  0  0  0  0  0
    6.7966    2.4453   -0.6489 N   0  3  2  0  0  0  0  0  0  0  0  0
    7.8467    3.3700   -0.2074 C   0  0  0  0  0  0  0  0  0  0  0  0
    7.1528    2.0328   -1.9773 C   0  0  0  0  0  0  0  0  0  0  0  0
    6.1369    1.1255   -2.6193 C   0  0  0  0  0  0  0  0  0  0  0  0
    3.2633   -2.0703    0.3328 C   0  0  0  0  0  0  0  0  0  0  0  0
    0.2065   -1.6286   -1.3773 C   0  0  0  0  0  0  0  0  0  0  0  0
   -1.1491   -1.8227   -1.2506 C   0  0  0  0  0  0  0  0  0  0  0  0
   -3.2902   -3.1137    3.4075 C   0  0  0  0  0  0  0  0  0  0  0  0
   -3.1419   -4.2852    4.1602 C   0  0  0  0  0  0  0  0  0  0  0  0
   -3.4029   -6.4366    4.1770 H   0  0  0  0  0  0  0  0  0  0  0  0
   -4.2799   -6.5058    1.9479 H   0  0  0  0  0  0  0  0  0  0  0  0
   -4.5377   -4.4017    0.6204 H   0  0  0  0  0  0  0  0  0  0  0  0
   -6.5850    0.9345    3.7455 H   0  0  0  0  0  0  0  0  0  0  0  0
   -6.5429    3.0999    1.9546 H   0  0  0  0  0  0  0  0  0  0  0  0
   -5.6726    3.8986   -0.2259 H   0  0  0  0  0  0  0  0  0  0  0  0
   -3.4453    3.4952   -4.3408 H   0  0  0  0  0  0  0  0  0  0  0  0
   -3.1851    5.1346   -3.6126 H   0  0  0  0  0  0  0  0  0  0  0  0
   -4.7890    4.7031   -4.2480 H   0  0  0  0  0  0  0  0  0  0  0  0
   -3.7073    0.2052   -0.7863 H   0  0  0  0  0  0  0  0  0  0  0  0
   -3.7379   -2.1448   -0.8103 H   0  0  0  0  0  0  0  0  0  0  0  0
   -1.4410   -1.3713    2.0531 H   0  0  0  0  0  0  0  0  0  0  0  0
    0.9489   -1.0307    1.8370 H   0  0  0  0  0  0  0  0  0  0  0  0
    4.9507   -0.8120   -1.6320 H   0  0  0  0  0  0  0  0  0  0  0  0
    4.9026    0.2740   -0.2347 H   0  0  0  0  0  0  0  0  0  0  0  0
    4.4551    3.2282   -2.3689 H   0  0  0  0  0  0  0  0  0  0  0  0
    3.5195    2.4409   -0.9922 H   0  0  0  0  0  0  0  0  0  0  0  0
    5.1348    2.9261    0.5296 H   0  0  0  0  0  0  0  0  0  0  0  0
    5.6188    4.1347   -0.6700 H   0  0  0  0  0  0  0  0  0  0  0  0
    6.8854    1.6107   -0.0191 H   0  0  0  0  0  0  0  0  0  0  0  0
    7.7961    3.5386    0.8950 H   0  0  0  0  0  0  0  0  0  0  0  0
    8.8145    2.9286   -0.4956 H   0  0  0  0  0  0  0  0  0  0  0  0
    7.7361    4.3272   -0.7651 H   0  0  0  0  0  0  0  0  0  0  0  0
    7.3261    2.9297   -2.6103 H   0  0  0  0  0  0  0  0  0  0  0  0
    8.1120    1.4686   -1.8902 H   0  0  0  0  0  0  0  0  0  0  0  0
    6.0580    1.4185   -3.7003 H   0  0  0  0  0  0  0  0  0  0  0  0
    6.5082    0.0737   -2.6378 H   0  0  0  0  0  0  0  0  0  0  0  0
    3.2714   -1.8329    1.4138 H   0  0  0  0  0  0  0  0  0  0  0  0
    4.3150   -1.9293   -0.0145 H   0  0  0  0  0  0  0  0  0  0  0  0
    3.0012   -3.1125    0.0999 H   0  0  0  0  0  0  0  0  0  0  0  0
    0.6621   -1.7020   -2.3460 H   0  0  0  0  0  0  0  0  0  0  0  0
   -1.7375   -2.0492   -2.1466 H   0  0  0  0  0  0  0  0  0  0  0  0
   -2.9639   -2.1871    3.8757 H   0  0  0  0  0  0  0  0  0  0  0  0
   -2.7497   -4.2540    5.1556 H   0  0  0  0  0  0  0  0  0  0  0  0
  1  2  2  0  0  0  0
  1 41  1  0  0  0  0
  2  3  1  0  0  0  0
  2 42  1  0  0  0  0
  3  4  2  0  0  0  0
  3 43  1  0  0  0  0
  4  5  1  0  0  0  0
  4 39  1  0  0  0  0
  5  6  2  3  0  0  0
  5 20  1  0  0  0  0
  6  7  1  0  0  0  0
  7  8  2  0  0  0  0
  7  9  1  0  0  0  0
  9 10  1  0  0  0  0
  9 44  1  0  0  0  0
 10 11  2  0  0  0  0
 11 12  1  0  0  0  0
 11 45  1  0  0  0  0
 12 13  2  0  0  0  0
 12 46  1  0  0  0  0
 13 14  1  0  0  0  0
 13 18  1  0  0  0  0
 14 15  2  0  0  0  0
 14 16  1  0  0  0  0
 16 17  1  0  0  0  0
 17 47  1  0  0  0  0
 17 48  1  0  0  0  0
 17 49  1  0  0  0  0
 18 19  2  0  0  0  0
 18 50  1  0  0  0  0
 19  6  1  0  0  0  0
 19 10  1  0  0  0  0
 20 21  1  0  0  0  0
 20 51  1  0  0  0  0
 21 22  2  0  0  0  0
 22 23  1  0  0  0  0
 22 52  1  0  0  0  0
 23 24  2  0  0  0  0
 23 53  1  0  0  0  0
 24 25  1  0  0  0  0
 24 37  1  0  0  0  0
 25 26  1  0  0  0  0
 25 36  1  0  0  0  0
 26 27  2  0  0  0  0
 26 28  1  0  0  0  0
 28 29  1  0  0  0  0
 28 54  1  0  0  0  0
 28 55  1  0  0  0  0
 29 30  1  0  0  0  0
 30 31  1  0  0  0  0
 30 56  1  0  0  0  0
 30 57  1  0  0  0  0
 31 32  1  0  0  0  0
 31 58  1  0  0  0  0
 31 59  1  0  0  0  0
 32 33  1  0  0  0  0
 32 34  1  0  0  0  0
 32 60  1  1  0  0  0
 33 61  1  0  0  0  0
 33 62  1  0  0  0  0
 33 63  1  0  0  0  0
 34 35  1  0  0  0  0
 34 64  1  0  0  0  0
 34 65  1  0  0  0  0
 35 29  1  0  0  0  0
 35 66  1  0  0  0  0
 35 67  1  0  0  0  0
 36 68  1  0  0  0  0
 36 69  1  0  0  0  0
 36 70  1  0  0  0  0
 37 38  2  0  0  0  0
 37 71  1  0  0  0  0
 38 21  1  0  0  0  0
 38 72  1  0  0  0  0
 39 40  2  0  0  0  0
 39 73  1  0  0  0  0
 40  1  1  0  0  0  0
 40 74  1  0  0  0  0
M  CHG  1  32   1
M  END
$$$$
