
 OpenBabel06082209483D

 74 78  0  0  0  0  0  0  0  0999 V2000
   -4.6451    3.3668   -2.4257 C   0  0  0  0  0  0  0  0  0  0  0  0
   -3.6022    3.5630   -1.5453 C   0  0  0  0  0  0  0  0  0  0  0  0
   -3.1088    2.4423   -0.8773 C   0  0  0  0  0  0  0  0  0  0  0  0
   -3.6123    1.1745   -1.0594 C   0  0  0  0  0  0  0  0  0  0  0  0
   -2.9024    0.0331   -0.4454 C   0  0  0  0  0  0  0  0  0  0  0  0
   -3.6133   -1.0989    0.1256 C   0  0  0  0  0  0  0  0  0  0  0  0
   -3.0333   -2.2612    0.4837 C   0  0  0  0  0  0  0  0  0  0  0  0
   -1.6851   -2.5520    0.3495 O   0  0  0  0  0  0  0  0  0  0  0  0
   -4.0456   -3.0753    1.0125 N   0  0  0  0  0  0  0  0  0  0  0  0
   -5.1862   -2.4858    1.0073 C   0  0  0  0  0  0  0  0  0  0  0  0
   -6.4460   -2.8693    1.4232 C   0  0  0  0  0  0  0  0  0  0  0  0
   -7.5305   -2.0386    1.3302 C   0  0  0  0  0  0  0  0  0  0  0  0
   -7.3893   -0.7713    0.8093 C   0  0  0  0  0  0  0  0  0  0  0  0
   -8.4557    0.0210    0.7469 C   0  0  0  0  0  0  0  0  0  0  0  0
   -9.6566   -0.4698    1.2103 O   0  0  0  0  0  0  0  0  0  0  0  0
   -8.4276    1.3109    0.2414 O   0  0  0  0  0  0  0  0  0  0  0  0
   -9.2024    1.7043   -0.8782 C   0  0  0  0  0  0  0  0  0  0  0  0
   -6.1424   -0.3799    0.3882 C   0  0  0  0  0  0  0  0  0  0  0  0
   -5.0382   -1.2032    0.4660 C   0  0  0  0  0  0  0  0  0  0  0  0
   -1.6859    0.2459   -0.2959 N   0  0  0  0  0  0  0  0  0  0  0  0
   -0.4753   -0.1327    0.0994 C   0  0  0  0  0  0  0  0  0  0  0  0
    0.4423   -0.6268   -0.8452 C   0  0  0  0  0  0  0  0  0  0  0  0
    1.7117   -1.0318   -0.5414 C   0  0  0  0  0  0  0  0  0  0  0  0
    2.1532   -0.9658    0.7591 C   0  0  0  0  0  0  0  0  0  0  0  0
    3.4552   -1.3895    1.1331 N   0  0  0  0  0  0  0  0  0  0  0  0
    4.5978   -0.7069    0.6720 C   0  0  0  0  0  0  0  0  0  0  0  0
    5.7310   -1.1372    0.9953 O   0  0  0  0  0  0  0  0  0  0  0  0
    4.5454    0.4963   -0.1761 C   0  0  0  0  0  0  0  0  0  0  0  0
    5.8456    0.9860   -0.5103 N   0  0  0  0  0  0  0  0  0  0  0  0
    6.6275    0.1778   -1.3722 C   0  0  0  0  0  0  0  0  0  0  0  0
    8.0604    0.6797   -1.4298 C   0  0  0  0  0  0  0  0  0  0  0  0
    8.6677    0.6535   -0.1337 N   0  3  2  0  0  0  0  0  0  0  0  0
    8.9870   -0.7293    0.2004 C   0  0  0  0  0  0  0  0  0  0  0  0
    7.8693    1.2026    0.9162 C   0  0  0  0  0  0  0  0  0  0  0  0
    6.5094    1.6845    0.5240 C   0  0  0  0  0  0  0  0  0  0  0  0
    3.6311   -2.5488    2.0171 C   0  0  0  0  0  0  0  0  0  0  0  0
    1.2720   -0.4814    1.7178 C   0  0  0  0  0  0  0  0  0  0  0  0
    0.0131   -0.0807    1.4108 C   0  0  0  0  0  0  0  0  0  0  0  0
   -4.6507    1.0175   -1.9453 C   0  0  0  0  0  0  0  0  0  0  0  0
   -5.1824    2.1129   -2.6410 C   0  0  0  0  0  0  0  0  0  0  0  0
   -5.0403    4.2252   -2.9506 H   0  0  0  0  0  0  0  0  0  0  0  0
   -3.1991    4.5564   -1.3931 H   0  0  0  0  0  0  0  0  0  0  0  0
   -2.3010    2.5959   -0.1916 H   0  0  0  0  0  0  0  0  0  0  0  0
   -1.1033   -2.8244    1.1333 H   0  0  0  0  0  0  0  0  0  0  0  0
   -6.5453   -3.8821    1.8368 H   0  0  0  0  0  0  0  0  0  0  0  0
   -8.5156   -2.3894    1.6749 H   0  0  0  0  0  0  0  0  0  0  0  0
  -10.0240   -1.3139    0.8002 H   0  0  0  0  0  0  0  0  0  0  0  0
  -10.2880    1.5633   -0.6961 H   0  0  0  0  0  0  0  0  0  0  0  0
   -9.0059    2.7920   -1.0331 H   0  0  0  0  0  0  0  0  0  0  0  0
   -8.9089    1.1383   -1.7680 H   0  0  0  0  0  0  0  0  0  0  0  0
   -6.0065    0.6208    0.0397 H   0  0  0  0  0  0  0  0  0  0  0  0
    0.1229   -0.6902   -1.8874 H   0  0  0  0  0  0  0  0  0  0  0  0
    2.3926   -1.4191   -1.3203 H   0  0  0  0  0  0  0  0  0  0  0  0
    4.0323    1.3314    0.3818 H   0  0  0  0  0  0  0  0  0  0  0  0
    3.9367    0.3639   -1.0961 H   0  0  0  0  0  0  0  0  0  0  0  0
    6.6269   -0.9071   -1.1341 H   0  0  0  0  0  0  0  0  0  0  0  0
    6.2356    0.3359   -2.4247 H   0  0  0  0  0  0  0  0  0  0  0  0
    8.6505    0.0346   -2.1221 H   0  0  0  0  0  0  0  0  0  0  0  0
    8.0467    1.6900   -1.8717 H   0  0  0  0  0  0  0  0  0  0  0  0
    9.5867    1.2009   -0.1946 H   0  0  0  0  0  0  0  0  0  0  0  0
   10.1036   -0.8431    0.1791 H   0  0  0  0  0  0  0  0  0  0  0  0
    8.6641   -0.9454    1.2240 H   0  0  0  0  0  0  0  0  0  0  0  0
    8.5031   -1.4055   -0.5210 H   0  0  0  0  0  0  0  0  0  0  0  0
    8.3962    2.0859    1.3794 H   0  0  0  0  0  0  0  0  0  0  0  0
    7.7734    0.4797    1.7726 H   0  0  0  0  0  0  0  0  0  0  0  0
    6.5662    2.7915    0.3047 H   0  0  0  0  0  0  0  0  0  0  0  0
    5.8739    1.6032    1.4503 H   0  0  0  0  0  0  0  0  0  0  0  0
    4.1068   -2.2172    2.9826 H   0  0  0  0  0  0  0  0  0  0  0  0
    2.6679   -3.0388    2.2543 H   0  0  0  0  0  0  0  0  0  0  0  0
    4.3062   -3.2794    1.5344 H   0  0  0  0  0  0  0  0  0  0  0  0
    1.6249   -0.4262    2.7617 H   0  0  0  0  0  0  0  0  0  0  0  0
   -0.6441    0.2868    2.1660 H   0  0  0  0  0  0  0  0  0  0  0  0
   -5.0495    0.0435   -2.1274 H   0  0  0  0  0  0  0  0  0  0  0  0
   -5.9882    2.0059   -3.3300 H   0  0  0  0  0  0  0  0  0  0  0  0
  1  2  2  0  0  0  0
  1 41  1  0  0  0  0
  2  3  1  0  0  0  0
  2 42  1  0  0  0  0
  3  4  2  0  0  0  0
  3 43  1  0  0  0  0
  4  5  1  0  0  0  0
  4 39  1  0  0  0  0
  5  6  1  0  0  0  0
  5 20  2  3  0  0  0
  6  7  2  0  0  0  0
  7  8  1  0  0  0  0
  7  9  1  0  0  0  0
  8 44  1  0  0  0  0
  9 10  2  0  0  0  0
 10 11  1  0  0  0  0
 11 12  2  0  0  0  0
 11 45  1  0  0  0  0
 12 13  1  0  0  0  0
 12 46  1  0  0  0  0
 13 14  2  3  0  0  0
 13 18  1  0  0  0  0
 14 15  1  0  0  0  0
 14 16  1  0  0  0  0
 15 47  1  0  0  0  0
 16 17  1  0  0  0  0
 17 48  1  0  0  0  0
 17 49  1  0  0  0  0
 17 50  1  0  0  0  0
 18 19  2  0  0  0  0
 18 51  1  0  0  0  0
 19  6  1  0  0  0  0
 19 10  1  0  0  0  0
 20 21  1  0  0  0  0
 21 22  2  0  0  0  0
 22 23  1  0  0  0  0
 22 52  1  0  0  0  0
 23 24  2  0  0  0  0
 23 53  1  0  0  0  0
 24 25  1  0  0  0  0
 24 37  1  0  0  0  0
 25 26  1  0  0  0  0
 25 36  1  0  0  0  0
 26 27  2  0  0  0  0
 26 28  1  0  0  0  0
 28 29  1  0  0  0  0
 28 54  1  0  0  0  0
 28 55  1  0  0  0  0
 29 30  1  0  0  0  0
 30 31  1  0  0  0  0
 30 56  1  0  0  0  0
 30 57  1  0  0  0  0
 31 32  1  0  0  0  0
 31 58  1  0  0  0  0
 31 59  1  0  0  0  0
 32 33  1  0  0  0  0
 32 34  1  0  0  0  0
 32 60  1  6  0  0  0
 33 61  1  0  0  0  0
 33 62  1  0  0  0  0
 33 63  1  0  0  0  0
 34 35  1  0  0  0  0
 34 64  1  0  0  0  0
 34 65  1  0  0  0  0
 35 29  1  0  0  0  0
 35 66  1  0  0  0  0
 35 67  1  0  0  0  0
 36 68  1  0  0  0  0
 36 69  1  0  0  0  0
 36 70  1  0  0  0  0
 37 38  2  0  0  0  0
 37 71  1  0  0  0  0
 38 21  1  0  0  0  0
 38 72  1  0  0  0  0
 39 40  2  0  0  0  0
 39 73  1  0  0  0  0
 40  1  1  0  0  0  0
 40 74  1  0  0  0  0
M  CHG  1  32   1
M  END
$$$$
