
     RDKit          3D

 74 78  0  0  0  0  0  0  0  0999 V2000
    4.5149   -0.5390   -4.6831 C   0  0  0  0  0  0  0  0  0  0  0  0
    3.2080   -0.2713   -4.4293 C   0  0  0  0  0  0  0  0  0  0  0  0
    2.8602    0.2472   -3.1799 C   0  0  0  0  0  0  0  0  0  0  0  0
    3.8235    0.4844   -2.2183 C   0  0  0  0  0  0  0  0  0  0  0  0
    3.3541    1.0157   -0.9028 C   0  0  0  0  0  0  0  0  0  0  0  0
    4.2945    1.4655    0.1390 C   0  0  0  0  0  0  0  0  0  0  0  0
    5.1716    2.5714   -0.2616 C   0  0  0  0  0  0  0  0  0  0  0  0
    4.7565    3.7445   -0.9317 O   0  0  0  0  0  0  0  0  0  0  0  0
    6.3810    2.3025    0.0951 N   0  0  0  0  0  0  0  0  0  0  0  0
    6.4662    1.0267    0.7338 C   0  0  0  0  0  0  0  0  0  0  0  0
    7.4878    0.2879    1.2772 C   0  0  0  0  0  0  0  0  0  0  0  0
    7.2803   -0.9603    1.8198 C   0  0  0  0  0  0  0  0  0  0  0  0
    6.0124   -1.5360    1.8426 C   0  0  0  0  0  0  0  0  0  0  0  0
    5.8153   -2.8551    2.4223 C   0  0  0  0  0  0  0  0  0  0  0  0
    4.6609   -3.3369    2.4303 O   0  0  0  0  0  0  0  0  0  0  0  0
    6.8467   -3.5962    2.9632 O   0  0  0  0  0  0  0  0  0  0  0  0
    6.7176   -4.8710    3.5406 C   0  0  0  0  0  0  0  0  0  0  0  0
    4.9842   -0.8004    1.3005 C   0  0  0  0  0  0  0  0  0  0  0  0
    5.1899    0.4731    0.7461 C   0  0  0  0  0  0  0  0  0  0  0  0
    2.1328    1.0488   -0.7872 N   0  0  0  0  0  0  0  0  0  0  0  0
    0.9737    1.2852   -0.1781 C   0  0  0  0  0  0  0  0  0  0  0  0
   -0.1948    0.7654   -0.7785 C   0  0  0  0  0  0  0  0  0  0  0  0
   -1.4084    0.9511   -0.1828 C   0  0  0  0  0  0  0  0  0  0  0  0
   -1.5880    1.6230    0.9913 C   0  0  0  0  0  0  0  0  0  0  0  0
   -2.8278    1.7832    1.6178 N   0  0  0  0  0  0  0  0  0  0  0  0
   -4.0336    1.1055    1.4412 C   0  0  0  0  0  0  0  0  0  0  0  0
   -4.9494    1.4092    2.3144 O   0  0  0  0  0  0  0  0  0  0  0  0
   -4.4501    0.1221    0.4555 C   0  0  0  0  0  0  0  0  0  0  0  0
   -5.8554   -0.3450    0.6736 N   0  0  0  0  0  0  0  0  0  0  0  0
   -6.0116   -1.3723   -0.3555 C   0  0  0  0  0  0  0  0  0  0  0  0
   -7.3915   -1.9056   -0.4529 C   0  0  0  0  0  0  0  0  0  0  0  0
   -8.4287   -1.0117   -0.0766 N   0  0  0  0  0  4  0  0  0  0  0  0
   -9.0744   -1.4426    1.1757 C   0  0  0  0  0  0  0  0  0  0  0  0
   -8.1006    0.3683   -0.0727 C   0  0  0  0  0  0  0  0  0  0  0  0
   -6.6963    0.7483    0.2043 C   0  0  0  0  0  0  0  0  0  0  0  0
   -2.8603    2.8754    2.6385 C   0  0  0  0  0  0  0  0  0  0  0  0
   -0.4458    2.1288    1.5718 C   0  0  0  0  0  0  0  0  0  0  0  0
    0.8023    1.9727    1.0147 C   0  0  0  0  0  0  0  0  0  0  0  0
    5.1357    0.2160   -2.4697 C   0  0  0  0  0  0  0  0  0  0  0  0
    5.4801   -0.3043   -3.7267 C   0  0  0  0  0  0  0  0  0  0  0  0
    4.7808   -0.9421   -5.6587 H   0  0  0  0  0  0  0  0  0  0  0  0
    2.4300   -0.4494   -5.1685 H   0  0  0  0  0  0  0  0  0  0  0  0
    1.8143    0.4430   -3.0400 H   0  0  0  0  0  0  0  0  0  0  0  0
    3.6413    1.8760    1.0234 H   0  0  0  0  0  0  0  0  0  0  0  0
    5.4615    4.4097   -1.2788 H   0  0  0  0  0  0  0  0  0  0  0  0
    8.4866    0.7521    1.2555 H   0  0  0  0  0  0  0  0  0  0  0  0
    8.1003   -1.5279    2.2451 H   0  0  0  0  0  0  0  0  0  0  0  0
    5.8786   -5.4754    3.1728 H   0  0  0  0  0  0  0  0  0  0  0  0
    7.6417   -5.4787    3.4391 H   0  0  0  0  0  0  0  0  0  0  0  0
    6.6002   -4.6910    4.6473 H   0  0  0  0  0  0  0  0  0  0  0  0
    3.9704   -1.2242    1.3013 H   0  0  0  0  0  0  0  0  0  0  0  0
   -0.1135    0.2058   -1.7292 H   0  0  0  0  0  0  0  0  0  0  0  0
   -2.2852    0.5277   -0.7108 H   0  0  0  0  0  0  0  0  0  0  0  0
   -3.8256   -0.7624    0.4020 H   0  0  0  0  0  0  0  0  0  0  0  0
   -4.4718    0.6048   -0.5723 H   0  0  0  0  0  0  0  0  0  0  0  0
   -5.2256   -2.1259   -0.2220 H   0  0  0  0  0  0  0  0  0  0  0  0
   -5.7851   -0.8410   -1.3265 H   0  0  0  0  0  0  0  0  0  0  0  0
   -7.5707   -2.3602   -1.4705 H   0  0  0  0  0  0  0  0  0  0  0  0
   -7.4475   -2.8013    0.2343 H   0  0  0  0  0  0  0  0  0  0  0  0
   -9.2135   -1.1302   -0.7946 H   0  0  0  0  0  0  0  0  0  0  0  0
  -10.1548   -1.2079    1.1882 H   0  0  0  0  0  0  0  0  0  0  0  0
   -9.0029   -2.5505    1.2504 H   0  0  0  0  0  0  0  0  0  0  0  0
   -8.6388   -0.9282    2.0495 H   0  0  0  0  0  0  0  0  0  0  0  0
   -8.7367    0.8453    0.7359 H   0  0  0  0  0  0  0  0  0  0  0  0
   -8.4499    0.8843   -0.9983 H   0  0  0  0  0  0  0  0  0  0  0  0
   -6.6440    1.6461    0.8458 H   0  0  0  0  0  0  0  0  0  0  0  0
   -6.2237    1.0637   -0.7756 H   0  0  0  0  0  0  0  0  0  0  0  0
   -3.9022    3.1211    2.8770 H   0  0  0  0  0  0  0  0  0  0  0  0
   -2.3103    3.7507    2.2188 H   0  0  0  0  0  0  0  0  0  0  0  0
   -2.3234    2.5258    3.5368 H   0  0  0  0  0  0  0  0  0  0  0  0
   -0.5679    2.6697    2.5175 H   0  0  0  0  0  0  0  0  0  0  0  0
    1.6552    2.4232    1.5434 H   0  0  0  0  0  0  0  0  0  0  0  0
    5.8792    0.3851   -1.7262 H   0  0  0  0  0  0  0  0  0  0  0  0
    6.5194   -0.5120   -3.9089 H   0  0  0  0  0  0  0  0  0  0  0  0
  1  2  2  0
  2  3  1  0
  3  4  2  0
  4  5  1  0
  5  6  1  0
  6  7  1  0
  7  8  1  0
  7  9  2  0
  9 10  1  0
 10 11  2  0
 11 12  1  0
 12 13  2  0
 13 14  1  0
 14 15  2  0
 14 16  1  0
 16 17  1  0
 13 18  1  0
 18 19  2  0
  5 20  2  3
 20 21  1  0
 21 22  2  0
 22 23  1  0
 23 24  2  0
 24 25  1  0
 25 26  1  0
 26 27  2  0
 26 28  1  0
 28 29  1  0
 29 30  1  0
 30 31  1  0
 31 32  1  0
 32 33  1  0
 32 34  1  0
 34 35  1  0
 25 36  1  0
 24 37  1  0
 37 38  2  0
  4 39  1  0
 39 40  2  0
 40  1  1  0
 19  6  1  0
 38 21  1  0
 19 10  1  0
 35 29  1  0
  1 41  1  0
  2 42  1  0
  3 43  1  0
  6 44  1  0
  8 45  1  0
 11 46  1  0
 12 47  1  0
 17 48  1  0
 17 49  1  0
 17 50  1  0
 18 51  1  0
 22 52  1  0
 23 53  1  0
 28 54  1  0
 28 55  1  0
 30 56  1  0
 30 57  1  0
 31 58  1  0
 31 59  1  0
 32 60  1  0
 33 61  1  0
 33 62  1  0
 33 63  1  0
 34 64  1  0
 34 65  1  0
 35 66  1  0
 35 67  1  0
 36 68  1  0
 36 69  1  0
 36 70  1  0
 37 71  1  0
 38 72  1  0
 39 73  1  0
 40 74  1  0
M  CHG  1  32   1
M  END
