10

Cl 0.20603148 -0.28688245 -0.32973597
C -1.57023471 -0.38446126 -0.39234568
H -1.87050203 -0.79022985 -1.35841090
H -1.91599659 -1.03630583 0.41004991
H -1.98400038 0.61568083 -0.26291955
Cl 2.72834707 2.08796205 3.22321210
C 1.01167783 1.67417483 2.99780277
H 0.91910383 0.98720142 2.15681788
H 0.64019264 1.20233320 3.90731859
H 0.45205087 2.58741707 2.79633085
