10

Cl -0.18670212 -0.93791281 0.36461049
C -1.92160799 -1.30826924 0.50910817
H -2.28376652 -1.67943372 -0.44958162
H -2.06097561 -2.06639673 1.27989406
H -2.45549346 -0.39766753 0.78100347
Cl 2.47308828 2.62940040 -1.51863374
C 0.76717452 2.32460288 -1.11398368
H 0.47671929 1.35230045 -1.51177092
H 0.65475519 2.33013453 -0.02982668
H 0.15225842 3.10781178 -1.55716956
