10

Cl -0.25178797 0.10322167 0.48623421
C -1.75779828 0.52810916 1.33405951
H -2.59959053 0.08521326 0.80212856
H -1.71373199 0.13862475 2.35119638
H -1.85918456 1.61323950 1.35289928
Cl 1.24734744 -1.47073802 -3.59414097
C -0.37123579 -1.41865357 -2.85541721
H -1.07409298 -1.93978455 -3.50517976
H -0.33119748 -1.90645076 -1.88155914
H -0.67327785 -0.37821144 -2.73657088
