10

Cl 0.26345337 -0.24504045 -0.41422415
C -1.50778386 -0.27654353 -0.24011197
H -1.94091484 -0.78609505 -1.10085798
H -1.76328523 -0.80922694 0.67590618
H -1.87586193 0.74827624 -0.18909726
Cl 3.15893369 1.99762333 3.11932817
C 1.45027936 1.57039402 2.86233389
H 1.37696781 0.89633886 2.00911459
H 1.07061218 1.08006093 3.75858903
H 0.88426946 2.48110259 2.66713950
