10

Cl -0.29471544 0.73041132 -0.64754491
C -1.90560074 0.11758433 -0.20278295
H -2.19645881 -0.66004329 -0.90905432
H -1.86095003 -0.29381316 0.80560512
H -2.61960539 0.94030215 -0.23837285
Cl 4.04854038 -1.85829467 0.81727692
C 2.36332226 -1.28997784 0.87268783
H 1.90935766 -1.42856826 -0.10842142
H 1.81939603 -1.86757183 1.61965006
H 2.35338408 -0.23313875 1.13907651
