10

Cl 0.09833892 -1.00510650 0.11958552
C -1.55088539 -0.33657312 0.08628300
H -2.07854405 -0.73774384 -0.77910510
H -2.06724101 -0.62008572 1.00347297
H -1.49002669 0.74936050 0.01412401
Cl 4.26197273 1.89091130 -0.60658888
C 2.49908597 1.70704134 -0.44639528
H 2.13758550 1.05111733 -1.23831028
H 2.27483920 1.27021091 0.52673759
H 2.03154482 2.68775781 -0.53168356
