10

Cl -0.47903200 0.62205697 -0.11580522
C -2.03445698 0.97267724 0.67562297
H -2.83827505 0.83411879 -0.04755031
H -2.16683714 0.28871309 1.51399257
H -2.02658879 2.00271948 1.03192989
Cl 1.90166151 -3.69631688 -0.90624233
C 0.41211003 -2.80142158 -1.29220788
H -0.31370230 -3.49056625 -1.72339900
H 0.01365870 -2.36523200 -0.37627392
H 0.64691204 -2.01217887 -2.00641676
