10

Cl 0.01741205 -0.45488960 1.13218782
C -1.72451194 -0.81209990 1.21551083
H -2.08740821 -1.03258413 0.21171441
H -1.88054262 -1.67283918 1.86587443
H -2.24498944 0.05796575 1.61608083
Cl 2.28898739 1.47270364 -2.75861182
C 0.56817729 1.34332642 -2.32196058
H 0.10735306 0.56553627 -2.93051709
H 0.48769623 1.08661255 -1.26572025
H 0.08327618 2.30083818 -2.51090858
