10

 Cl      0.55266     0.05092    -0.02117
  C     -1.21571    -0.11202     0.04657
  H     -1.54759    -0.70955    -0.80007
  H     -1.48950    -0.60207     0.97873
  H     -1.66341     0.87873     0.00149
 Cl      4.42141     1.57989     0.02623
  C      2.65304     1.41695     0.09398
  H      2.32117     0.81943    -0.75266
  H      2.37926     0.92691     1.02613
  H      2.20534     2.40770     0.04889
