10

Cl -0.11398903 -0.79057308 0.43837583
C -1.88857588 -0.91192184 0.36922429
H -2.18163771 -1.25279472 -0.62385763
H -2.22480036 -1.62435728 1.12251842
H -2.31832031 0.07024354 0.56697005
Cl 2.99306289 2.36989335 -1.82427138
C 1.33519757 2.22168915 -1.19427230
H 0.92187072 1.26313340 -1.50784662
H 1.36245350 2.27501377 -0.10580608
H 0.73140861 3.03656369 -1.59291459
