10

Cl -0.43351730 0.58887610 -0.85027348
C -2.20314934 0.43362854 -0.73534705
H -2.53741706 -0.33174760 -1.43585774
H -2.46721952 0.14693363 0.28260733
H -2.66035044 1.39184529 -0.98295963
Cl 3.30217495 -1.57325818 1.72760382
C 1.54158190 -1.35792343 1.58397924
H 1.23715623 -1.60173487 0.56614473
H 1.04428917 -2.02147720 2.29111258
H 1.29190139 -0.32057228 1.80664019
