10

Cl -0.26728774 0.17854828 0.58532021
C -1.92482565 0.40513809 1.19368303
H -2.61084311 -0.16949590 0.57125132
H -1.97623480 0.05558449 2.22494580
H -2.17739738 1.46438095 1.14503333
Cl 1.92418493 -1.34760134 -3.42344915
C 0.28184725 -1.31318831 -2.73849932
H -0.40341940 -1.79268706 -3.43725987
H 0.28315990 -1.84971189 -1.78971645
H -0.01373399 -0.27639731 -2.57765889
