10

Cl 0.18125221 -0.13825807 -0.69465405
C -1.48731195 -0.16889424 -0.07436740
H -2.10704263 -0.75757622 -0.75087359
H -1.48700168 -0.61957564 0.91794568
H -1.86265796 0.85297062 -0.01870213
Cl 4.67966935 1.30786655 1.85446936
C 2.93552345 0.97061885 1.74513631
H 2.75674834 0.29284181 0.91080521
H 2.60518065 0.50965585 2.67563454
H 2.40231022 1.90724050 1.58272609
