10

 Cl      0.55266     0.05092    -0.02117
  C     -1.21571    -0.11202     0.04657
  H     -1.54759    -0.70955    -0.80007
  H     -1.48950    -0.60207     0.97873
  H     -1.66341     0.87873     0.00149
 Cl      2.92141     1.57989     2.52623
  C      1.15304     1.41695     2.59398
  H      0.82117     0.81943     1.74734
  H      0.87926     0.92691     3.52613
  H      0.70534     2.40770     2.54889
