10

Cl 1.21425009 -0.70956943 1.69223998
C -0.45504088 -0.55876786 1.09369812
H -0.54498480 -1.10374808 0.15407993
H -1.13591888 -0.97729151 1.83469787
H -0.67998138 0.49561776 0.93328702
Cl -1.03759489 0.95823931 -2.21028609
C -2.68974390 1.15802584 -2.84232209
H -2.76808558 0.64224630 -3.79950017
H -3.39389129 0.72882120 -2.12941739
H -2.89355850 2.22099646 -2.97282718
