8

 Cl      0.55266     0.05092    -0.02117
  C     -1.21571    -0.11202     0.04657
  H     -1.54759    -0.70955    -0.80007
  H     -1.48950    -0.60207     0.97873
  H     -1.66341     0.87873     0.00149
  O      0.57254     2.07080    -0.50130
  H      0.11460     1.22543    -0.59031
  H      0.82016     2.26520    -1.39115
