10

Cl -0.20283483 -0.20436707 0.44247022
C -1.33930150 -1.57384997 0.43725782
H -1.32925183 -2.03496082 -0.55034396
H -1.02869089 -2.29741788 1.19107705
H -2.33913009 -1.20408774 0.66494482
Cl 0.25876873 3.63986239 -1.70506059
C -1.25113767 2.98077653 -1.03204772
H -1.47707270 2.03731078 -1.52875793
H -1.12021244 2.81559424 0.03734975
H -2.05568679 3.69570955 -1.20323945
