8

Cl -0.02529309 0.60669664 1.17778600
C -1.25202009 -0.13106480 0.11455581
H -0.74962964 -0.61287225 -0.72562534
H -1.81524749 -0.87105651 0.68303044
H -1.92081153 0.64840094 -0.25005671
O 1.80925564 -1.04854869 -1.13951403
H 1.78711570 -0.50611229 -0.34856608
H 2.68419049 -0.98189303 -1.52177008
