10

Cl -0.40426744 -0.38798345 -0.61781471
C -2.07215646 -0.18655973 -1.20615635
H -2.10894375 -0.44497601 -2.26451143
H -2.72957565 -0.84480094 -0.63807342
H -2.37285824 0.85173204 -1.06467345
Cl 1.81539537 1.09939427 3.65828813
C 0.45054314 0.20128099 2.95247887
H 0.82590507 -0.71958316 2.50662809
H -0.26613678 -0.03111832 3.73993304
H -0.02245528 0.81718431 2.18755123
