10

Cl 0.15341482 -0.70804007 -0.02778326
C -1.57313175 -0.28091783 0.05431051
H -2.09368255 -0.74675387 -0.78245146
H -1.98309521 -0.64321384 0.99717580
H -1.67230290 0.80306939 -0.00247953
Cl 4.77957674 1.86098994 0.10991325
C 3.01531548 1.62790126 0.07966602
H 2.74796079 1.06184558 -0.81253116
H 2.71319727 1.07887373 0.97150918
H 2.52941730 2.60313572 0.06079065
