10

 Cl      0.55266     0.05092    -0.02117
  C     -1.21571    -0.11202     0.04657
  H     -1.54759    -0.70955    -0.80007
  H     -1.48950    -0.60207     0.97873
  H     -1.66341     0.87873     0.00149
 Cl      2.92141     2.57989     0.02623
  C      1.15304     2.41695     0.09398
  H      0.82117     1.81943    -0.75266
  H      0.87926     1.92691     1.02613
  H      0.70534     3.40770     0.04889
