10

Cl 0.26744613 0.26736077 -0.73840929
C -1.35447192 -0.07839200 -0.09336301
H -1.87474679 -0.74674534 -0.77938096
H -1.25128093 -0.55346940 0.88235595
H -1.90350533 0.85804947 0.00548978
Cl 4.06354277 0.12270016 2.20837734
C 2.30457421 -0.13913781 2.28055357
H 2.02226853 -0.85574427 1.50928082
H 2.04506579 -0.52799387 3.26511083
H 1.79777754 0.81026230 2.10810498
