10

Cl -0.56681226 0.51784039 -0.26710314
C -1.84778941 1.27524728 0.71022419
H -2.67070763 1.56055125 0.05489341
H -2.19600210 0.55784958 1.45350162
H -1.44183979 2.15743526 1.20537581
Cl 1.16406361 -4.10811112 -1.02303855
C -0.24594323 -3.05868288 -1.30320696
H -1.06975561 -3.66472498 -1.67960033
H -0.52937502 -2.58703706 -0.36249731
H 0.01961146 -2.29579772 -2.03489875
