10

 Cl      0.55266     0.05092    -0.02117
  C     -1.21571    -0.11202     0.04657
  H     -1.54759    -0.70955    -0.80007
  H     -1.48950    -0.60207     0.97873
  H     -1.66341     0.87873     0.00149
 Cl      4.42141     0.57989     1.52623
  C      2.65304     0.41695     1.59398
  H      2.32117    -0.18057     0.74734
  H      2.37926    -0.07309     2.52613
  H      2.20534     1.40770     1.54889
