10

Cl -0.02862881 0.32663982 -0.53494335
C -1.77324611 0.06345242 -0.29808914
H -2.14474293 -0.58623000 -1.09073148
H -1.93086097 -0.40671791 0.67260001
H -2.28422585 1.02563929 -0.33309844
Cl 3.98525047 -1.36963757 2.04023979
C 2.21298974 -1.24325974 1.93865904
H 1.88304951 -1.64738960 0.98174811
H 1.76970117 -1.81133265 2.75627071
H 1.92738378 -0.19427406 2.01546476
