10

Cl 0.27303545 -0.35327135 -0.53918782
C -1.43128623 -0.20374928 -0.04606832
H -2.05520366 -0.74138090 -0.76013373
H -1.55062929 -0.63160914 0.94940919
H -1.70466382 0.85132327 -0.03249873
Cl 4.63227811 1.79292571 1.80917487
C 2.87563983 1.52559131 1.70705642
H 2.65782036 0.92758311 0.82245873
H 2.54521044 0.99888569 2.60204997
H 2.37446882 2.49059158 1.63585942
