10

Cl 0.02727280 -0.46829051 0.91364719
C -1.74249271 -0.58257474 1.06654792
H -2.10556557 -1.35898362 0.39315008
H -1.99552956 -0.83359123 2.09676525
H -2.18237907 0.37784877 0.79790570
Cl 1.38915588 1.75178599 -3.67634887
C 0.12055986 1.09061021 -2.61747866
H -0.47158266 0.37085439 -3.18223409
H 0.58922960 0.59935494 -1.76500806
H -0.51321857 1.90755581 -2.27329646
