10

Cl 0.00482727 0.31674765 -0.76526779
C -1.59000121 -0.08807910 -0.08545270
H -2.10147777 -0.77157172 -0.76324480
H -1.44938234 -0.56261644 0.88575973
H -2.16968439 0.82807166 0.02848076
Cl 4.80821158 0.09202587 1.28751453
C 3.04256098 -0.13072170 1.26838403
H 2.77669597 -0.77488829 0.43038907
H 2.73364687 -0.59286624 2.20569194
H 2.56127304 0.84078833 1.15586524
