10

Cl 0.03026950 -0.40456745 -0.01592107
C -1.69747463 -0.82516647 0.06265242
H -1.93438364 -1.50445826 -0.75621367
H -1.90212337 -1.30660048 1.01893591
H -2.28726355 0.08689503 -0.02815357
Cl 2.90312721 3.33639841 0.11168117
C 1.13922284 3.10379656 0.07005684
H 0.86544174 2.64207374 -0.87856141
H 0.84799164 2.45479904 0.89591178
H 0.65186226 4.07371989 0.16773159
