10

Cl 0.15774119 0.12921355 -0.72576058
C -1.48297236 -0.11848496 -0.08092308
H -2.03864418 -0.76298479 -0.76223440
H -1.41078201 -0.58812156 0.90002809
H -1.97792980 0.84884890 0.00532424
Cl 4.67980429 0.73997417 1.81693508
C 2.93338924 0.40240074 1.75786136
H 2.73683748 -0.31522215 0.96143587
H 2.61979999 -0.01019740 2.71653350
H 2.39942616 1.33146348 1.55891992
