10

 Cl      0.55266     0.05092    -0.02117
  C     -1.21571    -0.11202     0.04657
  H     -1.54759    -0.70955    -0.80007
  H     -1.48950    -0.60207     0.97873
  H     -1.66341     0.87873     0.00149
 Cl      1.32117    -0.68057    -1.75266
  C     -0.44720    -0.84351    -1.68492
  H     -0.77908    -1.44104    -2.53156
  H     -0.72099    -1.33356    -0.75276
  H     -0.89490     0.14724    -1.73000
