10

Cl -0.40155009 -1.36593664 0.00303537
C -2.16308000 -1.21659226 0.21178230
H -2.65998672 -1.61937098 -0.67098285
H -2.46284390 -1.77643789 1.09770172
H -2.41705940 -0.16361825 0.33345895
Cl 3.25098317 2.10916775 -0.34729823
C 1.50330377 1.77262645 -0.34404787
H 1.28614347 1.01691790 -1.09889157
H 1.21474865 1.40552024 0.64081771
H 0.96479105 2.69229369 -0.57192552
