10

 Cl      0.55266     0.05092    -0.02117
  C     -1.21571    -0.11202     0.04657
  H     -1.54759    -0.70955    -0.80007
  H     -1.48950    -0.60207     0.97873
  H     -1.66341     0.87873     0.00149
 Cl      0.82117    -1.18057    -1.75266
  C     -0.94720    -1.34351    -1.68492
  H     -1.27908    -1.94104    -2.53156
  H     -1.22099    -1.83356    -0.75276
  H     -1.39490    -0.35276    -1.73000
