10

Cl -0.40499957 0.60920548 -0.94866371
C -2.18218435 0.69992579 -0.89742145
H -2.59537419 -0.16238068 -1.42078421
H -2.50644191 0.69331425 0.14338907
H -2.50494027 1.62135627 -1.38255208
Cl 3.26574379 -1.32232906 1.37856192
C 1.52135888 -1.64785944 1.24115439
H 1.29579803 -1.94388114 0.21663922
H 1.25573653 -2.45083780 1.92854940
H 0.97075306 -0.74194368 1.49477745
