10

Cl -0.24557124 -0.73856416 -0.18810942
C -1.88735700 -1.41480698 -0.06187378
H -2.01367610 -2.18787608 -0.82009590
H -2.01794101 -1.84178349 0.93258905
H -2.61098732 -0.61531166 -0.22091914
Cl 1.84272680 3.62622173 0.64384237
C 0.24966816 2.87007256 0.40306488
H 0.21311244 2.43055106 -0.59357302
H 0.10857126 2.09405968 1.15535876
H -0.52309600 3.63200736 0.50336620
