10

 Cl      0.55266     0.05092    -0.02117
  C     -1.21571    -0.11202     0.04657
  H     -1.54759    -0.70955    -0.80007
  H     -1.48950    -0.60207     0.97873
  H     -1.66341     0.87873     0.00149
 Cl      1.32117    -1.18057     1.24734
  C     -0.44720    -1.34351     1.31508
  H     -0.77908    -1.94104     0.46844
  H     -0.72099    -1.83356     2.24724
  H     -0.89490    -0.35276     1.27000
