10

Cl -0.40407567 0.50244640 0.69966104
C -2.01767464 -0.07330327 0.21430510
H -1.92444962 -0.66870425 -0.69407367
H -2.43176998 -0.68261486 1.01770118
H -2.65971764 0.78820244 0.03041542
Cl 4.74000075 -0.04819446 -0.74755436
C 2.96845169 -0.15001999 -0.61312615
H 2.58432465 -0.74511932 -1.44131166
H 2.71060950 -0.62177462 0.33508701
H 2.55097098 0.85597192 -0.65298389
