10

Cl -0.05266257 -0.67088283 -0.66374046
C -1.80552240 -0.56316615 -0.95511297
H -1.97839153 -0.38267307 -2.01604046
H -2.27271745 -1.50117661 -0.65471288
H -2.21158981 0.25955325 -0.36659172
Cl 1.47411971 1.98328526 3.53225202
C 0.18322186 1.06871293 2.71645156
H 0.63493678 0.32546464 2.05950858
H -0.43184462 0.57555441 3.46919036
H -0.42409997 1.75989818 2.13244597
