10

Cl 0.27446128 -0.84805033 -0.00038522
C -1.41782320 -0.29949123 0.05449859
H -1.95821783 -0.72999985 -0.78870696
H -1.86640409 -0.62684219 0.99244311
H -1.43752004 0.78866275 -0.00744256
Cl 4.13492723 2.31289903 0.07954069
C 2.36150596 2.16287968 0.07970655
H 2.05191258 1.62307772 -0.81522937
H 2.05182783 1.61359998 0.96878602
H 1.92200027 3.16015445 0.08490914
