10

Cl -0.36659990 -0.45600483 0.71507618
C -1.99879836 -0.16592026 1.36414952
H -2.64138429 -1.00360198 1.09262312
H -1.93876844 -0.07797280 2.44898718
H -2.39085451 0.75703512 0.93674548
Cl 1.54264450 1.16263528 -3.83051292
C 0.39828441 0.18122873 -2.88478904
H -0.43612961 -0.10417724 -3.52525727
H 0.91032244 -0.70938746 -2.52088995
H 0.03673375 0.77073545 -2.04248229
