8

 Cl      0.55266     0.05092    -0.02117
  C     -1.21571    -0.11202     0.04657
  H     -1.54759    -0.70955    -0.80007
  H     -1.48950    -0.60207     0.97873
  H     -1.66341     0.87873     0.00149
  O      1.03047     1.41617    -1.91228
  H      0.57254     0.57080    -2.00130
  H      1.27810     1.61057    -2.80213
