10

Cl -0.23429262 -0.75049003 0.11129097
C -1.88097404 -1.42067279 0.19979403
H -2.05289872 -2.05476773 -0.67000001
H -1.97685812 -2.00636713 1.11411108
H -2.59653836 -0.59845522 0.20789359
Cl 1.84533806 3.62838513 -0.50811406
C 0.24210857 2.87697380 -0.32741980
H 0.09676505 2.15438354 -1.13042039
H 0.19400339 2.37263648 0.63768441
H -0.52120320 3.65294396 -0.38116982
