10

Cl -0.45640488 0.91872573 1.13355927
C -1.72891368 0.03231950 0.26055877
H -1.27779231 -0.49305464 -0.58130937
H -2.19182721 -0.68325704 0.94001751
H -2.47359789 0.74209638 -0.09978529
Cl 3.98475196 -0.75349289 -0.72039615
C 2.20537385 -0.77399523 -0.69967702
H 1.85006495 -1.41910835 -1.50308213
H 1.86685762 -1.15517519 0.26370613
H 1.83815760 0.24183174 -0.84547172
