10

Cl -0.20598461 -0.60629530 0.38758022
C -1.83885684 -1.31263388 0.44448398
H -2.05817683 -1.77257169 -0.51916609
H -1.87360680 -2.06402533 1.23342355
H -2.55938854 -0.52129463 0.65148647
Cl 1.74703589 3.46542503 -1.60098789
C 0.20598590 2.77067831 -1.04414592
H 0.00137628 1.86231038 -1.61085093
H 0.28637780 2.53473926 0.01691460
H -0.58931224 3.49823783 -1.20508800
