10

Cl -0.36166625 0.55249487 0.93661405
C -2.06915959 0.17409052 0.60438152
H -2.12900172 -0.41365513 -0.31168329
H -2.47407672 -0.39685739 1.44006168
H -2.62257068 1.10551244 0.48516802
Cl 3.77878625 -0.85410901 -1.70092935
C 2.01252473 -0.87489236 -1.48421585
H 1.56552126 -1.48151703 -2.27167288
H 1.77986221 -1.30073655 -0.50812308
H 1.63645052 0.14655964 -1.54148082
