10

 Cl      0.55266     0.05092    -0.02117
  C     -1.21571    -0.11202     0.04657
  H     -1.54759    -0.70955    -0.80007
  H     -1.48950    -0.60207     0.97873
  H     -1.66341     0.87873     0.00149
 Cl      1.92141     1.57989    -0.97377
  C      0.15304     1.41695    -0.90602
  H     -0.17883     0.81943    -1.75266
  H     -0.12074     0.92691     0.02613
  H     -0.29466     2.40770    -0.95111
