8

 Cl      0.55266     0.05092    -0.02117
  C     -1.21571    -0.11202     0.04657
  H     -1.54759    -0.70955    -0.80007
  H     -1.48950    -0.60207     0.97873
  H     -1.66341     0.87873     0.00149
  O      1.57254     1.07080    -1.50130
  H      1.11460     0.22543    -1.59031
  H      1.82016     1.26520    -2.39115
