10

Cl 0.10895625 -0.47419839 -0.00638582
C -1.66429036 -0.61130735 0.06691215
H -2.00735881 -1.22142850 -0.76859159
H -1.94518996 -1.07855255 1.01089904
H -2.09880454 0.38617330 0.00218448
Cl 3.33847246 3.29587460 0.13396574
C 1.60494499 2.89981769 0.06272521
H 1.39550149 2.38955129 -0.87744198
H 1.35654649 2.24872877 0.90072184
H 1.02789199 3.82223115 0.12313094
