10

 Cl      0.55266     0.05092    -0.02117
  C     -1.21571    -0.11202     0.04657
  H     -1.54759    -0.70955    -0.80007
  H     -1.48950    -0.60207     0.97873
  H     -1.66341     0.87873     0.00149
 Cl      3.42141    -0.42011     2.02623
  C      1.65304    -0.58305     2.09398
  H      1.32117    -1.18057     1.24734
  H      1.37926    -1.07309     3.02613
  H      1.20534     0.40770     2.04889
