10

Cl -0.47774103 -0.23260349 0.79378698
C -1.98345631 -1.17835721 0.88789973
H -2.35544486 -1.35133523 -0.12201466
H -1.77487101 -2.13040358 1.37600516
H -2.71891125 -0.61681491 1.46399861
Cl 1.43916875 2.53678316 -3.30826339
C 0.40173504 2.14124998 -1.91738303
H 0.14788662 1.08186447 -1.95411002
H 0.94252511 2.36117876 -0.99709109
H -0.50544106 2.74300805 -1.96917828
