10

 Cl      0.55266     0.05092    -0.02117
  C     -1.21571    -0.11202     0.04657
  H     -1.54759    -0.70955    -0.80007
  H     -1.48950    -0.60207     0.97873
  H     -1.66341     0.87873     0.00149
 Cl      1.32117     1.81943     0.24734
  C     -0.44720     1.65649     0.31508
  H     -0.77908     1.05896    -0.53156
  H     -0.72099     1.16644     1.24724
  H     -0.89490     2.64724     0.27000
