27
0 1 C13H13N
C                    -1.026224869957    -1.257970202324     0.695030529075
C                    -0.975924869957    -0.071170202324     1.359530529075
N                     0.220375130043     0.617829797676     1.646130529075
H                     0.252075130043     1.491129797676     2.214930529075
C                     1.532975130043     0.177229797676     1.176930529075
C                    -2.175424869957     0.509429797676     1.771430529075
C                    -2.247124869957    -1.859170202324     0.441830529075
C                    -3.375824869957    -0.108970202324     1.508030529075
C                    -3.467524869957    -1.310170202324     0.837030529075
H                    -0.099924869957    -1.748970202324     0.363930529075
H                    -2.130824869957     1.444629797676     2.292930529075
H                    -2.290624869957    -2.807070202324    -0.088969470925
H                    -4.278724869957     0.396229797676     1.865930529075
C                     1.738775130043     0.294529797676    -0.243369470925
C                     2.078175130043    -0.709170202324    -1.118269470925
C                     1.560675130043     1.572229797676    -0.774469470925
C                     2.242575130043    -0.495170202324    -2.468969470925
C                     1.727075130043     1.763429797676    -2.107469470925
C                     2.064375130043     0.767029797676    -2.981569470925
H                     2.220975130043    -1.703170202324    -0.731669470925
H                     1.295175130043     2.409229797676    -0.142969470925
H                     2.510475130043    -1.307370202324    -3.134069470925
H                     1.587075130043     2.755829797676    -2.519369470925
H                     2.189975130043     0.948529797676    -4.045769470925
H                     1.654675130043    -0.850970202324     1.446830529075
H                     2.249775130043     0.823529797676     1.638830529075
H                    -4.371124869957    -1.768770202324     0.641730529075
