12
0 1 C6H6
H                     2.258290471385    -0.972227085295     0.412596655157
C                     1.259290471385    -0.538327085295     0.213096655157
C                    -1.285309528615     0.550072914705    -0.229703344843
C                    -0.903609528615     0.060772914705     1.010296655157
C                    -0.344209528615     0.472972914705    -1.223903344843
C                     0.351390471385    -0.479827085295     1.239696655157
C                     0.917690471385    -0.064727085295    -1.015503344843
H                    -0.597509528615     0.871172914705    -2.184903344843
H                     0.600390471385    -0.854327085295     2.240196655157
H                    -2.222709528615     0.948872914705    -0.394603344843
H                    -1.578309528615     0.100672914705     1.790196655157
H                     1.596490471385    -0.105327085295    -1.791803344843
