26
0 1 C9H13N3O
O                    -2.170286783936     0.927001556080    -0.146179764141
C                    -2.029786783936    -0.302398443920    -0.327579764141
N                    -0.763086783936    -0.888298443920    -0.264079764141
C                     0.452813216064    -0.225198443920     0.024020235859
C                    -0.665186783936    -2.339898443920    -0.524279764141
C                     1.673213216064    -0.774198443920    -0.371179764141
C                     2.944413216064     1.013801556080     0.546520235859
C                     2.894113216064    -0.172998443920    -0.117979764141
C                     1.744913216064     1.594401556080     0.958420235859
C                     0.544513216064     0.976001556080     0.695020235859
C                    -3.273886783936    -1.086198443920    -0.606679764141
H                    -0.046686783936    -2.826798443920     0.231420235859
H                    -0.208286783936    -2.436598443920    -1.521679764141
H                    -1.681486783936    -2.819798443920    -0.466779764141
H                     1.629713216064    -1.722098443920    -0.901979764141
H                     3.820413216064    -0.663998443920    -0.449079764141
H                     1.789513216064     2.529601556080     1.479920235859
H                    -0.358386783936     1.481201556080     1.052920235859
H                    -3.418386783936    -1.920198443920     0.115020235859
H                    -3.114986783936    -1.525298443920    -1.631179764141
N                     4.140713216064     1.702801556080     0.833120235859
N                    -4.412386783936    -0.264398443920    -0.588179764141
H                     4.172413216064     2.576101556080     1.401920235859
H                     4.985913216064     1.342401556080     0.479520235859
H                    -4.537486783936     0.122201556080     0.347420235859
H                    -5.233086783936    -0.814698443920    -0.841179764141
