10

Cl -1.50186993 -1.15727378 0.23258105
Cl 1.40004227 -0.91806831 -0.20177246
C 0.11481085 -1.49238847 0.87016334
H 0.21708503 -0.98669498 1.83034984
H 0.22183517 -2.57083074 0.98733725
Cl -1.91124930 1.83955146 -3.28568749
Cl 1.03005230 1.79701618 -3.00294069
C -0.51597516 1.12171608 -2.46723061
H -0.61532177 1.30324578 -1.39752979
H -0.51070945 0.05108676 -2.67087042
