10

Cl -1.48575410 -1.44919015 -0.14884864
Cl -0.18372522 1.12086452 0.44370532
C 0.04816205 -0.59204014 0.06591239
H 0.59212181 -1.05640623 0.88828889
H 0.61406722 -0.66286415 -0.86309589
Cl -1.56122331 3.04858954 -2.71120166
Cl -0.51778033 0.39504707 -3.47491341
C -1.90119513 1.31842042 -2.86572683
H -2.16830709 0.93428267 -1.88134459
H -2.72896591 1.19325645 -3.56357558
