10

Cl -1.36089466 -1.74728138 0.40140260
Cl -0.27957588 0.95930341 -0.00382917
C 0.08876702 -0.76559286 0.13938450
H 0.75798457 -0.90644364 0.98803474
H 0.56163610 -1.09139210 -0.78722277
Cl -2.27274976 1.71922847 -3.31458600
Cl -1.02781011 -0.95572789 -3.41420537
C -2.42506123 0.00470354 -2.90162335
H -2.52346283 -0.07783069 -1.81934126
H -3.31143322 -0.38900686 -3.39881391
