10

Cl -1.76315120 -0.64786107 -0.35835887
Cl 1.05261640 0.03438353 -0.87271402
C -0.07026460 -1.00702060 0.01351207
H 0.08800372 -0.85374535 1.08118111
H 0.13055456 -2.04218395 -0.26251507
Cl -2.78533115 2.78704803 -3.21707871
Cl 0.16178721 2.97773781 -3.35215900
C -1.23553582 2.14735302 -2.65103372
H -1.19209601 2.26039281 -1.56810439
H -1.17918310 1.09385577 -2.92352938
