10

Cl -1.40311493 -1.63915965 0.28367430
Cl -0.19169033 1.03356835 0.08507927
C 0.08902220 -0.71311561 0.06060040
H 0.77582864 -0.96360005 0.86900582
H 0.51499081 -0.97718292 -0.90748519
Cl -2.21408012 2.18250292 -3.09413059
Cl -1.07741090 -0.51770983 -3.45398212
C -2.42977394 0.44484730 -2.83564745
H -2.52027086 0.26744699 -1.76401178
H -3.33610056 0.13236249 -3.35390266
