10

 Cl     -1.47169     0.19504    -0.02632
 Cl      1.47642     0.15922     0.00601
  C     -0.01067    -0.79529     0.04535
  H     -0.02743    -1.35747     0.97473
  H     -0.00975    -1.46528    -0.81003
 Cl     -1.36870     1.29803    -1.42333
 Cl      1.57941     1.26221    -1.39101
  C      0.09231     0.30769    -1.35166
  H      0.07556    -0.25449    -0.42229
  H      0.09324    -0.36230    -2.20705
