8

Cl -1.48123992 -0.01950735 0.92699948
Cl 1.11564555 0.41078261 -0.40093731
C -0.09501729 -0.77149665 0.12024840
H 0.37568816 -1.46625999 0.81538948
H -0.46029910 -1.29503432 -0.76445853
O -1.84112768 -0.41634128 -2.53683216
H -2.41054523 0.07397363 -1.94156505
H -1.31196450 0.21390333 -3.02729431
