10

 Cl     -1.47169     0.19504    -0.02632
 Cl      1.47642     0.15922     0.00601
  C     -0.01067    -0.79529     0.04535
  H     -0.02743    -1.35747     0.97473
  H     -0.00975    -1.46528    -0.81003
 Cl     -2.81296     3.85055    -1.92437
 Cl      0.13515     3.81473    -1.89205
  C     -1.35195     2.86021    -1.85270
  H     -1.36870     2.29803    -0.92333
  H     -1.35102     2.19022    -2.70809
