10

 Cl     -1.47169     0.19504    -0.02632
 Cl      1.47642     0.15922     0.00601
  C     -0.01067    -0.79529     0.04535
  H     -0.02743    -1.35747     0.97473
  H     -0.00975    -1.46528    -0.81003
 Cl     -3.31296     3.35055    -1.92437
 Cl     -0.36485     3.31473    -1.89205
  C     -1.85195     2.36021    -1.85270
  H     -1.86870     1.79803    -0.92333
  H     -1.85102     1.69022    -2.70809
