10

Cl -1.61747647 -0.84899584 0.19720162
Cl 0.39692478 1.10347229 1.11590521
C 0.02343898 -0.21367223 -0.00602295
H 0.72849318 -1.02538710 0.17214603
H 0.12494348 0.16504656 -1.02280891
Cl -1.54950105 2.36196508 -2.20711733
Cl -1.35968189 -0.20069641 -3.63950747
C -2.43587941 1.00241273 -2.91252699
H -3.00644907 0.51810914 -2.11990505
H -3.09741253 1.38770578 -3.68816415
