8

 Cl     -1.47169     0.19504    -0.02632
 Cl      1.47642     0.15922     0.00601
  C     -0.01067    -0.79529     0.04535
  H     -0.02743    -1.35747     0.97473
  H     -0.00975    -1.46528    -0.81003
  O     -1.95181     2.21492     0.49356
  H     -2.40975     1.36955     0.40454
  H     -1.70418     2.40933    -0.39629
