10

Cl -1.46278928 -0.77411677 0.05767449
Cl 1.47929909 -0.86028428 0.08954050
C -0.02231545 -1.76581966 0.32865584
H -0.04380720 -2.13070397 1.35551623
H -0.03929728 -2.59638944 -0.37699729
Cl -1.35447000 3.19628992 -1.50629668
Cl 1.60170275 3.13873942 -1.46238417
C 0.10025801 2.29805486 -1.04879409
H 0.08086817 2.13925352 0.02925057
H 0.08925120 1.34233640 -1.57176540
