8

Cl -1.52966005 0.04689453 0.85524737
Cl 0.98986269 0.37229273 -0.64153261
C -0.10832787 -0.75660021 0.16846170
H 0.43443269 -1.24949049 0.97473057
H -0.45306981 -1.48231498 -0.56950056
O -1.79411962 -0.94189092 -2.52665670
H -2.43587462 -0.40500435 -2.05931509
H -1.21210340 -0.35386631 -3.00988468
