10

 Cl     -1.47169     0.19504    -0.02632
 Cl      1.47642     0.15922     0.00601
  C     -0.01067    -0.79529     0.04535
  H     -0.02743    -1.35747     0.97473
  H     -0.00975    -1.46528    -0.81003
 Cl     -1.86870     1.29803    -1.92333
 Cl      1.07941     1.26221    -1.89101
  C     -0.40769     0.30769    -1.85166
  H     -0.42444    -0.25449    -0.92229
  H     -0.40676    -0.36230    -2.70705
