10

Cl -1.34531786 -0.92402430 -0.13770706
Cl 1.56774183 -1.34297572 -0.14877989
C -0.02711663 -2.09894463 -0.01831042
H -0.09434365 -2.59458654 0.95033600
H -0.13417873 -2.82013614 -0.82862122
Cl -0.76887821 3.26633920 0.22819164
Cl 2.16384534 2.89162213 0.26579045
C 0.57473192 2.11471700 0.21010159
H 0.48042916 1.46579862 1.08045506
H 0.51178684 1.52955037 -0.70705616
