10

 Cl     -1.47169     0.19504    -0.02632
 Cl      1.47642     0.15922     0.00601
  C     -0.01067    -0.79529     0.04535
  H     -0.02743    -1.35747     0.97473
  H     -0.00975    -1.46528    -0.81003
 Cl     -4.81296     0.85055    -1.92437
 Cl     -1.86485     0.81473    -1.89205
  C     -3.35195    -0.13979    -1.85270
  H     -3.36870    -0.70197    -0.92333
  H     -3.35102    -0.80978    -2.70809
