8

Cl -1.35105188 -0.01000738 1.19874078
Cl 1.03447595 0.42371410 -0.47766574
C -0.03173195 -0.76433944 0.28916193
H 0.56004480 -1.36963053 0.97548988
H -0.47048350 -1.38191051 -0.49589158
O -1.98563745 -0.58354015 -2.21997702
H -2.55115192 -0.09497978 -1.61992424
H -1.43951405 0.04682368 -2.69132401
