10

Cl -1.01738145 -1.66813937 0.84137972
Cl 0.18612951 1.01574717 1.00291815
C 0.47917308 -0.72839920 0.95264157
H 0.99594740 -1.01424797 1.86857114
H 1.09238671 -0.94903939 0.07868377
Cl -0.51512776 1.14149821 -2.73968493
Cl 0.55073938 -1.60616738 -2.73458139
C -0.89592548 -0.58600911 -2.77524956
H -1.50808416 -0.81989884 -1.90426943
H -1.43915724 -0.79798414 -3.69600904
