10

Cl -1.21595403 -0.67827458 0.39648082
Cl 1.55635324 -1.20499172 -0.44371914
C -0.13788134 -1.70286053 -0.56274977
H -0.22163327 -2.72658256 -0.19798165
H -0.44277004 -1.63873779 -1.60719482
Cl -0.06488906 2.90799540 2.20331363
Cl 2.80926433 2.26988219 1.93018533
C 1.14554694 1.76969717 1.59387866
H 0.97630353 0.80335843 2.06817636
H 1.02435971 1.68787399 0.51401060
