10

 Cl     -1.47169     0.19504    -0.02632
 Cl      1.47642     0.15922     0.00601
  C     -0.01067    -0.79529     0.04535
  H     -0.02743    -1.35747     0.97473
  H     -0.00975    -1.46528    -0.81003
 Cl     -2.31296     2.85055    -2.92437
 Cl      0.63515     2.81473    -2.89205
  C     -0.85195     1.86021    -2.85270
  H     -0.86870     1.29803    -1.92333
  H     -0.85102     1.19022    -3.70809
