8

 Cl     -1.47169     0.19504    -0.02632
 Cl      1.47642     0.15922     0.00601
  C     -0.01067    -0.79529     0.04535
  H     -0.02743    -1.35747     0.97473
  H     -0.00975    -1.46528    -0.81003
  O     -2.45181     1.71492     0.99356
  H     -2.90975     0.86955     0.90454
  H     -2.20418     1.90933     0.10371
