10

Cl -1.38667246 -0.65423382 -0.14969630
Cl 1.47527479 -1.15661324 0.31918049
C -0.18272287 -1.49143717 0.84079577
H -0.29346651 -1.15617713 1.87226449
H -0.35840457 -2.56441884 0.76209565
Cl -0.72062792 1.83242221 -3.15241052
Cl 2.22604818 1.60969438 -3.24993215
C 0.73238224 1.11470760 -2.44036521
H 0.78937266 1.42272264 -1.39664622
H 0.64751644 0.03069336 -2.51088599
