8

Cl -1.70882533 -0.86856097 1.21468872
Cl 0.82071338 0.58636381 0.78662432
C -0.35079135 -0.56258809 0.11971488
H 0.15964597 -1.50660148 -0.07012066
H -0.74888690 -0.14215759 -0.80489739
O -1.94925321 1.97301373 -0.95311263
H -2.66429972 1.78871469 -0.34232000
H -1.29335284 2.49794590 -0.49196723
