10

 Cl     -1.47169     0.19504    -0.02632
 Cl      1.47642     0.15922     0.00601
  C     -0.01067    -0.79529     0.04535
  H     -0.02743    -1.35747     0.97473
  H     -0.00975    -1.46528    -0.81003
 Cl     -2.36870    -0.70197    -1.92333
 Cl      0.57941    -0.73779    -1.89101
  C     -0.90769    -1.69231    -1.85166
  H     -0.92444    -2.25449    -0.92229
  H     -0.90676    -2.36230    -2.70705
