10

Cl -1.00886924 -1.76087345 0.89390013
Cl 0.39669484 0.82284736 0.89627443
C 0.54899810 -0.93358157 0.74240604
H 1.20901276 -1.29348252 1.53161334
H 0.96120266 -1.15518976 -0.24231362
Cl -1.81239954 2.34786061 -2.25682246
Cl -0.59792281 -0.30068260 -2.73525888
C -1.94307580 0.59920571 -2.01518692
H -1.95551394 0.40349721 -0.94319897
H -2.86942703 0.25775900 -2.47701309
