10

Cl -1.30912789 -1.77641709 0.77010313
Cl -0.24478361 0.91718173 0.25549195
C 0.03194032 -0.82521657 0.11396798
H 0.93700777 -1.07713447 0.66651662
H 0.14118441 -1.06946134 -0.94289981
Cl -3.95496063 1.58053463 -2.50280589
Cl -2.07671473 -0.65793347 -2.92065229
C -3.31263202 0.05684665 -1.87215391
H -2.86885074 0.25350267 -0.89657238
H -4.13566286 -0.65194273 -1.78179540
