10

Cl -1.55949482 -0.47064413 0.05244036
Cl 1.37541429 -0.23910671 0.06992785
C -0.01504544 -1.33357004 0.09960123
H 0.02553282 -1.91577342 1.02036628
H 0.04171319 -1.98468429 -0.77294374
Cl -1.83362594 3.82274203 -0.51675189
Cl 1.12212335 3.90698508 -0.51879129
C -0.32821266 2.89985420 -0.39895386
H -0.31309295 2.39136428 0.56476169
H -0.30791184 2.17279299 -1.21045663
