8

Cl -1.44201486 -0.11618633 1.00056197
Cl 1.18982815 0.55236263 -0.14784191
C -0.09043310 -0.66330798 -0.00457572
H 0.33366348 -1.56121352 0.44446095
H -0.47451418 -0.87165732 -1.00423690
O -1.44459567 0.82238703 -2.47200666
H -2.11009059 1.18218885 -1.88391735
H -0.69689323 1.42155664 -2.47383438
