10

Cl -1.74070393 -0.58462444 -0.12235430
Cl 1.06477461 0.19859693 -0.54763394
C -0.04045269 -1.03717670 0.07110301
H 0.16000371 -1.17690089 1.13351667
H 0.13465206 -1.96123629 -0.48001176
Cl -2.83055775 3.36414145 -2.14072993
Cl 0.10998072 3.63456248 -2.28201339
C -1.26008212 2.63797805 -1.76934248
H -1.19461621 2.49580186 -0.69088717
H -1.19559839 1.67881754 -2.28244673
