10

Cl -1.73537661 -0.74087583 -0.19315884
Cl 1.06398509 -0.05326556 -0.79223756
C -0.03110828 -1.09422734 0.12897866
H 0.15818314 -0.93694013 1.19102703
H 0.16364390 -2.13017859 -0.14907158
Cl -2.83328061 2.93622905 -2.70460233
Cl 0.10951407 3.15900941 -2.88160471
C -1.26931218 2.22191089 -2.28642015
H -1.19952362 2.16367316 -1.20064194
H -1.21932490 1.22462495 -2.72306858
