10

Cl -1.27991749 1.08641342 1.24952264
Cl 1.66733610 0.97767812 1.43407586
C 0.17938680 0.10870352 1.03060286
H 0.10561234 -0.76584859 1.67668355
H 0.23354309 -0.19290773 -0.01470685
Cl -1.83176412 -1.67650036 -1.53277178
Cl 1.02789444 -2.20519529 -1.97892819
C -0.62907342 -2.53341556 -2.50787415
H -0.81318990 -3.60418751 -2.41898249
H -0.73112786 -2.20738000 -3.54322145
