8

Cl -1.51152629 -0.26237503 1.10845116
Cl 1.07733932 0.66116054 0.04281891
C -0.18182912 -0.58258076 -0.01720110
H 0.26674990 -1.54200605 0.23953633
H -0.59054975 -0.60208859 -1.02834620
O -1.78455884 1.26053085 -2.05500925
H -2.40293979 1.39735918 -1.33561372
H -1.10773543 1.93612986 -1.99602613
