10

Cl -1.03376987 -1.80232734 0.78074709
Cl 0.25266299 0.84192560 0.67772146
C 0.49282178 -0.90624482 0.80806450
H 0.99872999 -1.11487259 1.75056500
H 1.09747152 -1.23208449 -0.03855027
Cl -1.07733480 1.80521651 -2.86380104
Cl 0.00713490 -0.93980382 -2.87386139
C -1.40231113 0.08972083 -2.57297520
H -1.70297690 -0.02969446 -1.53217025
H -2.20372849 -0.22447544 -3.24133992
