10

 Cl     -1.47169     0.19504    -0.02632
 Cl      1.47642     0.15922     0.00601
  C     -0.01067    -0.79529     0.04535
  H     -0.02743    -1.35747     0.97473
  H     -0.00975    -1.46528    -0.81003
 Cl     -3.81296     1.35055    -2.92437
 Cl     -0.86485     1.31473    -2.89205
  C     -2.35195     0.36021    -2.85270
  H     -2.36870    -0.20197    -1.92333
  H     -2.35102    -0.30978    -3.70809
