10

Cl -0.81206553 -1.78857711 1.16378868
Cl 0.31313621 0.89092978 0.71286839
C 0.63873559 -0.84653804 0.78781570
H 1.37901889 -1.02594022 1.56738810
H 1.01265689 -1.16581925 -0.18509643
Cl -1.84304640 1.75140253 -2.42772327
Cl -0.69701429 -0.95701755 -2.67423134
C -2.03150585 0.03078441 -2.05770941
H -2.07571747 -0.08323489 -0.97463528
H -2.95549804 -0.31862964 -2.51806514
