10

 Cl     -1.47169     0.19504    -0.02632
 Cl      1.47642     0.15922     0.00601
  C     -0.01067    -0.79529     0.04535
  H     -0.02743    -1.35747     0.97473
  H     -0.00975    -1.46528    -0.81003
 Cl     -0.86870     1.79803     0.07667
 Cl      2.07941     1.76221     0.10899
  C      0.59231     0.80769     0.14834
  H      0.57556     0.24551     1.07771
  H      0.59324     0.13770    -0.70705
