10

Cl -0.02317131 0.64355498 -1.73765245
Cl 1.04903224 -1.89142027 -0.69369962
C -0.39246782 -0.89530406 -0.94651083
H -0.84183973 -0.68431451 0.02419267
H -1.08516891 -1.44890862 -1.58004381
Cl 0.24135345 -0.47256956 2.78751601
Cl 0.82591885 2.18197752 1.65702917
C 1.48490066 0.61744409 2.15527637
H 2.22109035 0.78968797 2.94029368
H 1.94905221 0.14721245 1.28799880
