10

 Cl     -1.47169     0.19504    -0.02632
 Cl      1.47642     0.15922     0.00601
  C     -0.01067    -0.79529     0.04535
  H     -0.02743    -1.35747     0.97473
  H     -0.00975    -1.46528    -0.81003
 Cl     -1.36870     1.79803    -0.92333
 Cl      1.57941     1.76221    -0.89101
  C      0.09231     0.80769    -0.85166
  H      0.07556     0.24551     0.07771
  H      0.09324     0.13770    -1.70705
