10

Cl -0.97861500 -1.39254023 1.05736672
Cl 0.39235036 1.22055399 1.09157767
C 0.52749200 -0.51146280 0.75276369
H 1.30254122 -0.92697540 1.39664132
H 0.79479719 -0.63394326 -0.29673506
Cl -1.05002359 0.41322075 -2.51376273
Cl -0.02412413 -2.34125492 -2.63261454
C -1.45909015 -1.30438123 -2.63104292
H -2.07215932 -1.56892709 -1.76925607
H -2.00446856 -1.46692981 -3.56053809
