8

Cl -1.53933066 0.01751618 0.76094098
Cl 1.12479658 0.38588880 -0.44501945
C -0.04055263 -0.76338059 0.23100572
H 0.41592929 -1.25575377 1.08928197
H -0.29145459 -1.48757825 -0.54524781
O -1.40118206 -0.93019892 -2.64074573
H -2.10913149 -0.42047546 -2.24405491
H -0.76793444 -0.31599799 -3.01461078
