10

Cl -0.69120505 -1.87207343 1.22912819
Cl -0.37563879 0.94772649 0.45323364
C 0.43742203 -0.59504457 0.75043287
H 1.15835549 -0.45318057 1.55554005
H 0.93875867 -0.90234349 -0.16772694
Cl -0.92752119 -0.06935618 -3.18489610
Cl 0.06931773 -2.72381103 -2.39290501
C -1.34268082 -1.66745105 -2.54906041
H -1.79126937 -1.54033466 -1.56349576
H -2.04683868 -2.13677151 -3.23585051
