8

Cl -0.07448905 1.10799834 0.60994427
Cl 1.41601416 -1.27074465 -0.31662406
C -0.15129985 -0.60571835 0.16671301
H -0.51314608 -1.16483301 1.02933597
H -0.84811150 -0.71151544 -0.66501951
O -3.26276475 -0.01366116 -0.02962541
H -3.01807307 0.86445826 0.26722042
H -4.15698985 0.02403601 -0.37039469
