8

Cl -0.93687473 0.48091089 -0.85019424
Cl 1.87400351 -0.08111949 -0.13493781
C 0.21261517 -0.69012955 -0.18140316
H -0.09800874 -0.93010063 0.83617576
H 0.19231224 -1.58407541 -0.80440782
O -2.22402293 -0.93577732 2.00768275
H -2.50915687 -0.73834586 2.90053464
H -2.61972765 -0.29134263 1.41809988
