10

 Cl     -1.47169     0.19504    -0.02632
 Cl      1.47642     0.15922     0.00601
  C     -0.01067    -0.79529     0.04535
  H     -0.02743    -1.35747     0.97473
  H     -0.00975    -1.46528    -0.81003
 Cl     -3.31296     0.85055    -2.42437
 Cl     -0.36485     0.81473    -2.39205
  C     -1.85195    -0.13979    -2.35270
  H     -1.86870    -0.70197    -1.42333
  H     -1.85102    -0.80978    -3.20809
