10

Cl -1.47466081 -0.82515124 0.20303007
Cl 1.46821551 -0.89429015 0.23640598
C -0.02611792 -1.84204036 0.20573467
H -0.05074124 -2.47420547 1.09353010
H -0.02968940 -2.44792173 -0.70050692
Cl -1.34585187 3.34954113 -0.70888070
Cl 1.60950794 3.27386259 -0.66155162
C 0.10431238 2.35657950 -0.50220551
H 0.07674988 1.91335496 0.49301952
H 0.09697554 1.57763075 -1.26417559
