10

Cl -1.16143975 0.99163852 -1.84292395
Cl 1.63551428 0.44147776 -1.06515266
C -0.07645417 0.11941805 -0.75042902
H -0.29999942 0.42495910 0.27143060
H -0.25160588 -0.94920836 -0.87294635
Cl -1.77657795 -2.08742767 1.62280302
Cl 1.10176328 -1.71222196 2.11182501
C -0.39153851 -2.49646344 2.64626509
H -0.60631378 -2.16891184 3.66361396
H -0.24464810 -3.57590017 2.60991430
