10

Cl -1.26840670 -0.91853240 0.21574989
Cl 1.66994388 -1.09124274 0.18820613
C 0.14977117 -1.92935627 0.53201127
H 0.14405017 -2.21164361 1.58478673
H 0.09163967 -2.81196214 -0.10512940
Cl -0.82418511 2.96250526 -2.04505328
Cl 2.04219065 2.59866032 -1.42320109
C 0.39747416 1.97386229 -1.23158816
H 0.16417079 1.94489928 -0.16733891
H 0.36205134 0.97017000 -1.65404317
