10

Cl -1.47450675 -0.86221220 0.05469725
Cl 1.46743379 -0.95381288 0.13012794
C -0.04303888 -1.71971813 0.64462727
H -0.07148071 -1.72686432 1.73450582
H -0.06431475 -2.73598837 0.25055882
Cl -1.33674532 2.60432585 -2.38293362
Cl 1.61999321 2.55829651 -2.33256929
C 0.11987224 1.78229463 -1.80436321
H 0.10122380 1.77966393 -0.71491699
H 0.11026336 0.76137498 -2.18533399
