10

Cl -1.40790433 -1.46019601 0.17892137
Cl -0.22120298 1.20115819 0.58412254
C 0.03563439 -0.45041912 0.00444140
H 0.84100806 -0.89764369 0.58690879
H 0.30136529 -0.40671280 -1.05206973
Cl -1.64156228 2.32179701 -2.77319122
Cl -1.33909013 -0.50808641 -3.52883670
C -2.40274309 0.72568399 -2.83530639
H -2.66279473 0.42795980 -1.81918219
H -3.29531020 0.79641905 -3.45660788
