10

Cl -1.56512084 -0.98171340 0.20536216
Cl 1.36822169 -0.73242465 0.21760700
C -0.01521524 -1.83609336 0.19926259
H 0.03443504 -2.46496779 1.08822234
H 0.03997673 -2.44112151 -0.70579172
Cl -1.92814981 3.18570596 -0.65340662
Cl 1.01871011 3.42305675 -0.69636958
C -0.37530581 2.35141337 -0.49621784
H -0.32476925 1.90618683 0.49713996
H -0.32408262 1.57731781 -1.26140829
