10

Cl -1.17604236 -0.81566852 0.02948833
Cl 1.71679308 -1.35863438 0.02427843
C 0.09185658 -2.03768840 -0.14859837
H -0.04809721 -2.79333453 0.62444945
H 0.00691298 -2.47961100 -1.14160616
Cl -0.20961005 3.39314546 1.04071551
Cl 2.62153037 2.57230618 0.80570390
C 0.92707243 2.06181601 0.78106510
H 0.78000306 1.32608192 1.57127057
H 0.71828112 1.61894726 -0.19236677
