8

Cl -1.28169572 -0.34629561 1.40574802
Cl 0.99530455 0.56155299 -0.23279825
C -0.23001461 -0.69131369 0.02269679
H 0.27580346 -1.64020414 0.20005963
H -0.85231228 -0.74333932 -0.87172255
O -2.24497420 1.08321456 -1.68370013
H -2.69455606 1.24576870 -0.85309570
H -1.57641514 1.76063651 -1.79563781
