8

 Cl     -1.47169     0.19504    -0.02632
 Cl      1.47642     0.15922     0.00601
  C     -0.01067    -0.79529     0.04535
  H     -0.02743    -1.35747     0.97473
  H     -0.00975    -1.46528    -0.81003
  O     -2.95181    -0.28508    -1.50644
  H     -3.40975    -1.13045    -1.59546
  H     -2.70418    -0.09067    -2.39629
