8

Cl -1.76980272 -0.45062871 0.53137571
Cl 0.82263062 0.65084618 -0.33585602
C -0.10576060 -0.80770534 0.04293891
H 0.38852137 -1.32422185 0.86583435
H -0.13496262 -1.43788218 -0.84615812
O -2.09878260 2.52873049 -1.45786736
H -2.13282514 1.74020538 -0.91532338
H -1.20406831 2.86678603 -1.42633408
