10

Cl -1.52162335 -0.89246752 0.52678259
Cl 1.38291615 -1.05499605 0.07580342
C -0.01276622 -1.72135197 0.93699385
H 0.15999427 -1.61180311 2.00775024
H -0.11358924 -2.77276627 0.66732801
Cl -2.02099004 1.73757008 -2.51157782
Cl 0.85983054 2.17256397 -3.01545669
C -0.36138319 1.31640540 -2.06307918
H -0.21595281 1.56815511 -1.01280960
H -0.22773611 0.24605037 -2.21733482
