10

Cl -1.56228180 -0.36705021 -0.05505830
Cl 1.37131941 -0.12524896 -0.11448385
C -0.01233408 -1.20192152 0.12648077
H 0.04196690 -1.61074749 1.13542275
H 0.03860811 -1.99780243 -0.61667607
Cl -1.80617827 3.66561879 -1.79411818
Cl 1.15078650 3.65398421 -1.76633261
C -0.33527518 2.78475977 -1.35601345
H -0.34564008 2.61310881 -0.27988128
H -0.33357151 1.83525903 -1.89013977
