10

Cl -1.50055943 -1.05709031 0.10163130
Cl 1.43673533 -1.08196420 0.30159409
C -0.08420556 -1.77514464 0.88319406
H -0.15556364 -1.59616747 1.95607232
H -0.07878681 -2.84406475 0.66935895
Cl -1.24579764 2.16162814 -2.74839990
Cl 1.70192001 2.01459708 -2.56198842
C 0.15113341 1.36414161 -2.01064661
H 0.08885989 1.49613167 -0.93087778
H 0.11496445 0.30529288 -2.26553802
