23

C 1.582965860046 -0.439358035535 -1.348213838918
N 0.587456500222 -0.139443230367 -0.319353768594
C -0.736107887142 -0.108590965516 -0.906213959757
C -1.844455354470 -0.179191533921 0.138524484051
C 0.893469039863 1.107448791984 0.407624314438
H -0.844066308888 -0.977586959046 -1.567899311454
H -0.918665739147 0.784503769127 -1.537371925820
N -3.101769847855 -0.281438599653 -0.404849552792
O -1.661995697636 -0.090342436110 1.348157093911
C 2.963472730680 -0.708176203894 -0.771693055328
H 1.245798365296 -1.336538255652 -1.879452013315
H 1.648256791191 0.372018057696 -2.099411087419
C 1.430088491438 0.841779343524 1.805017357153
H 1.599977935116 1.718770782478 -0.177092937513
H -0.023175950976 1.696762798944 0.497377376360
H 2.907491107534 -1.496333566989 -0.017856680974
H 3.642074352395 -1.030321587109 -1.567180539061
H 1.635551875857 1.785717366070 2.321329345353
H 0.679596778956 0.284970274354 2.365689434138
H -3.228180081890 -0.615904639303 -1.349834162517
H -3.852781916460 -0.465501757568 0.248093850464
H 3.394209202149 0.183068438347 -0.311400192957
H 2.352199267491 0.258999908738 1.777682006602
