
     RDKit          3D

 23 22  0  0  0  0  0  0  0  0999 V2000
    2.3156    0.4396   -0.7878 N   0  0  0  0  0  0  0  0  0  0  0  0
    2.0356   -0.5371    0.1966 C   0  0  0  0  0  0  0  0  0  0  0  0
    3.0644   -1.2007    0.8243 O   0  0  0  0  0  0  0  0  0  0  0  0
    0.7963   -0.8105    0.5109 C   0  0  0  0  0  0  0  0  0  0  0  0
   -0.3296   -0.1778   -0.0836 N   0  0  0  0  0  0  0  0  0  0  0  0
   -0.7739    1.1477    0.1694 C   0  0  0  0  0  0  0  0  0  0  0  0
    0.0142    1.9374    1.1446 C   0  0  0  0  0  0  0  0  0  0  0  0
   -1.1087   -0.9466   -1.0392 C   0  0  0  0  0  0  0  0  0  0  0  0
   -2.4597   -1.2027   -0.3736 C   0  0  0  0  0  0  0  0  0  0  0  0
    1.7721    0.5648   -1.6691 H   0  0  0  0  0  0  0  0  0  0  0  0
    3.1253    1.1074   -0.6541 H   0  0  0  0  0  0  0  0  0  0  0  0
    3.3497   -2.0895    0.4208 H   0  0  0  0  0  0  0  0  0  0  0  0
    0.6255   -1.5596    1.2643 H   0  0  0  0  0  0  0  0  0  0  0  0
   -1.8680    1.1295    0.4159 H   0  0  0  0  0  0  0  0  0  0  0  0
   -0.7334    1.7006   -0.8155 H   0  0  0  0  0  0  0  0  0  0  0  0
    0.3021    1.3824    2.0541 H   0  0  0  0  0  0  0  0  0  0  0  0
   -0.6584    2.7668    1.5174 H   0  0  0  0  0  0  0  0  0  0  0  0
    0.8501    2.4417    0.6474 H   0  0  0  0  0  0  0  0  0  0  0  0
   -0.6278   -1.9131   -1.2602 H   0  0  0  0  0  0  0  0  0  0  0  0
   -1.3244   -0.3736   -1.9643 H   0  0  0  0  0  0  0  0  0  0  0  0
   -2.7286   -2.2696   -0.5079 H   0  0  0  0  0  0  0  0  0  0  0  0
   -3.2340   -0.5053   -0.7483 H   0  0  0  0  0  0  0  0  0  0  0  0
   -2.4044   -1.0318    0.7377 H   0  0  0  0  0  0  0  0  0  0  0  0
  1  2  1  0
  2  3  1  0
  2  4  2  3
  4  5  1  0
  5  6  1  0
  6  7  1  0
  5  8  1  0
  8  9  1  0
  1 10  1  0
  1 11  1  0
  3 12  1  0
  4 13  1  0
  6 14  1  0
  6 15  1  0
  7 16  1  0
  7 17  1  0
  7 18  1  0
  8 19  1  0
  8 20  1  0
  9 21  1  0
  9 22  1  0
  9 23  1  0
M  END
