18

H 1.23023300 1.45255105 -1.35142366
H 1.23173775 2.00438586 0.32396541
C 1.10318486 1.12733870 -0.31608108
S 2.53535182 -0.01903510 0.11096619
C 1.78907290 -1.42484448 0.69503289
N 1.29831494 -2.42669341 1.08073106
C -1.44303081 -1.54887112 -0.67209060
O -2.22480518 -1.46190797 0.28191802
N -0.52208198 -0.57860414 -0.96539231
H 0.00586328 -0.64760578 -1.82622788
C -0.31905253 0.58818711 -0.09620794
H -0.44628047 0.25138562 0.95169824
C -1.35312620 1.72619583 -0.34863897
O -0.99362608 2.88231841 -0.57739746
N -2.64539874 1.35444132 -0.21080897
H -1.42258978 -2.40956102 -1.35465726
H -2.86783160 0.45190941 0.19596220
H -3.36779418 2.04955970 -0.32212087
