18

H 1.253408378757 0.510084072885 -0.823378487315
H 0.794076503656 0.334366841238 0.875565421508
C 0.700823537576 -0.098355712504 -0.112653090179
S 1.474870829253 -1.836943614339 -0.083312910814
C 3.091838759297 -1.377693841086 0.343938795281
N 4.185700626437 -1.095403915351 0.622546854011
C -1.975822875418 -1.494747027143 -2.249628915526
O -3.005037352071 -1.614444295000 -1.560918774470
N -0.881400081989 -0.813066079891 -1.840157077966
H -0.108014329603 -0.701607901662 -2.473868245127
C -0.762893888798 -0.236353179960 -0.498655467613
H -1.274590163757 -0.917636040703 0.187990478849
C -1.451388009663 1.137117437997 -0.377479394558
O -0.848657892761 2.114732156011 0.097351993426
N -2.740003802085 1.169396984185 -0.780452463517
H -1.887286645371 -1.937845172942 -3.243747470827
H -3.246388100591 0.318378990894 -0.981479490326
H -3.236810983599 2.038974818799 -0.704703194236
