18

H 1.16826263 0.99761889 -1.27512884
H 1.07314196 0.84848188 0.47983739
C 0.81461195 0.35835769 -0.46300118
S 1.82583872 -1.23042603 -0.48989148
C 0.66542728 -2.46514591 -0.54084119
N -0.11835404 -3.34553829 -0.60242341
C -2.26943180 -1.10139428 -1.93147912
O -3.12990181 -1.15224274 -1.04473184
N -1.09373903 -0.41382649 -1.78672180
H -0.48313416 -0.31327870 -2.58778096
C -0.71530699 0.22316736 -0.51900274
H -1.06166415 -0.44680799 0.29323203
C -1.37626182 1.61069364 -0.26419931
O -0.70285656 2.59729523 0.03826986
N -2.72664053 1.61006779 -0.31685952
H -2.37605952 -1.60801406 -2.90062390
H -3.22712516 0.72793205 -0.34502630
H -3.22325099 2.46621798 -0.12235369
