18

H 1.43122064 0.56834956 -0.72478937
H 0.97462530 1.32629708 0.81616574
C 0.84817864 0.43811623 0.18850902
S 1.50702612 -0.97103690 1.19559444
C 3.12312893 -0.47579801 1.29078684
N 4.23893750 -0.09579745 1.33728607
C -1.85941204 -1.33364087 -1.59644311
O -2.84148627 -1.41223245 -0.84985337
N -0.77647089 -0.54396696 -1.32201328
H -0.06018703 -0.43324466 -2.02836349
C -0.64494594 0.19313507 -0.05680656
H -1.10100655 -0.41808896 0.74550662
C -1.41147419 1.55449482 -0.07928014
O -0.85229592 2.62089171 0.18063395
N -2.73631292 1.44613224 -0.32849280
H -1.77017875 -1.90999126 -2.52813097
H -3.18110750 0.53468978 -0.31846700
H -3.30009412 2.28284302 -0.32261858
