18

H 1.46421631 1.29112941 -0.97328711
H 1.43099355 0.94823220 0.76050604
C 1.14842560 0.56296318 -0.22317336
S 2.13639754 -1.01407772 -0.45173088
C 1.13019466 -2.18347429 0.24906195
N 0.41528192 -3.00165295 0.70837288
C -1.92138910 -0.85425927 -1.74043623
O -2.75774026 -1.02199943 -0.84595936
N -0.76705320 -0.14268590 -1.55600316
H -0.17398739 0.04673343 -2.35394107
C -0.37754613 0.38326521 -0.24150463
H -0.69356198 -0.36261644 0.51373892
C -1.06925877 1.72136352 0.15246063
O -0.41544709 2.69971464 0.51746291
N -2.42034870 1.68281999 0.13406863
H -2.03092428 -1.27681502 -2.74895848
H -2.89642611 0.79172371 0.04031326
H -2.93586856 2.50364772 0.41350305
