18

H 1.19619005 1.23775078 -0.07071109
H 0.76227822 0.67331236 1.55198971
C 0.74529039 0.41339890 0.49114988
S 1.83025937 -1.07806018 0.21951434
C 3.29184954 -0.44832818 0.79485032
N 4.29407914 0.02688611 1.19590708
C -1.88417187 -1.41887685 -1.43967829
O -2.95070184 -1.32436259 -0.82243478
N -0.77265355 -0.68215644 -1.13072722
H 0.00787022 -0.69079843 -1.77640003
C -0.71447447 0.21109491 0.03704284
H -1.27948231 -0.29787457 0.84209245
C -1.38248757 1.60172136 -0.19515827
O -0.79634449 2.65144564 0.07097722
N -2.67141339 1.54511634 -0.59931472
H -1.73779552 -2.12022146 -2.27317963
H -3.17163347 0.66339934 -0.56828673
H -3.17851348 2.40770597 -0.72840908
