18

H 1.16835810 -1.11119751 0.47680252
H 1.44230313 0.19848294 -0.69652560
C 0.87634706 -0.10031502 0.18813267
S 1.55144637 1.03672678 1.52197674
C 3.17055350 0.55529257 1.39758924
N 4.28901878 0.20186989 1.27504978
C -1.95891930 -0.91609275 -2.04890280
O -2.98720707 -1.12262879 -1.39315611
N -0.81865626 -0.37081861 -1.52108978
H -0.07080226 -0.11679133 -2.15463019
C -0.65795465 -0.06869901 -0.08377396
H -1.15062043 -0.88524347 0.47744139
C -1.39612603 1.26281815 0.31471292
O -0.83916175 2.19028228 0.89647293
N -2.71656448 1.28225387 0.02877836
H -1.86921891 -1.18940137 -3.10985939
H -3.18658942 0.43014272 -0.25361164
H -3.25806137 2.09447267 0.28381890
