18

H 1.26914731 1.20156422 0.09887043
H 0.50346131 1.24743306 1.69514252
C 0.64858851 0.63732686 0.80048508
S 1.48656416 -0.93235062 1.34467635
C 2.85701363 -0.84462932 0.35313137
N 3.78403966 -0.76015768 -0.37177009
C -1.48038872 -1.38196909 -1.46177223
O -2.61784085 -1.42916762 -0.97926917
N -0.51056317 -0.53725418 -0.99698646
H 0.36691699 -0.47613972 -1.49883961
C -0.71268019 0.30717208 0.19322271
H -1.32910062 -0.26941421 0.91018444
C -1.47146287 1.63208506 -0.11679552
O -1.01580360 2.72776776 0.21260106
N -2.68591392 1.46308548 -0.68602685
H -1.15585804 -2.02974901 -2.28808687
H -3.10034623 0.53814523 -0.72535877
H -3.24762936 2.27740271 -0.88418538
