18

H -3.208228065226 -4.111489315403 -5.336038672824
H -4.092127967746 -4.395325952368 -3.830159287228
C -4.064743939115 -3.808793406249 -4.739910058197
S -5.645851482875 -4.171156854293 -5.736670539308
C -5.399685225367 -5.871069494993 -5.977131239617
N -5.255143948875 -7.010920111991 -6.160664855579
C -4.441653084773 -0.263023154632 -5.724115234844
O -4.850193999948 0.376653557704 -4.738367082017
N -3.990169618110 -1.536267027922 -5.650947389961
H -3.615456488484 -1.970044104305 -6.477698545527
C -4.036764590734 -2.323875463711 -4.416633391805
H -4.948732792084 -2.032256184875 -3.886707025364
C -2.850545356387 -2.031004005391 -3.477488935826
O -2.163052454016 -2.954379103593 -3.009333334719
N -2.659998376873 -0.726331408320 -3.185132042611
H -4.417840247414 0.168168977640 -6.727084610575
H -3.349826993510 -0.030716047337 -3.432605420006
H -1.909493086645 -0.485681780975 -2.562554075361
