18

H 1.263682075583 0.498131539315 -0.730314902790
H 0.737209445586 0.464304424109 0.957588027231
C 0.610475462412 0.005625668419 -0.015143529649
S 1.129269030717 -1.821353363887 0.111896665467
C 2.783078386069 -1.575276927051 0.572124895065
N 3.898513336987 -1.439094874542 0.874052242230
C -2.181750601229 -1.094384266824 -2.177203735052
O -3.234108846771 -1.034627975237 -1.516471350310
N -1.011746242066 -0.556603263059 -1.762040929391
H -0.213023768957 -0.587739543583 -2.372961118920
C -0.847148285422 0.058335702401 -0.442501110468
H -1.469949810061 -0.509972933132 0.255074771013
C -1.333976204654 1.519844084172 -0.402700460004
O -0.608653841498 2.422025163191 0.049564263629
N -2.593636705386 1.716973051928 -0.848272953019
H -2.132555033831 -1.590689463790 -3.148659141045
H -3.212465540226 0.938868280199 -1.029263711399
H -2.961343024305 2.651305099709 -0.826119033246
