18

H 1.27813045 0.79991768 -0.33705685
H 0.64198384 0.88132541 1.31713764
C 0.64040400 0.29592234 0.39406530
S 1.30826785 -1.38786022 0.81283700
C 2.94137015 -1.11153951 0.46244258
N 4.06781755 -0.88571977 0.19420771
C -1.87759148 -1.33157722 -1.78341335
O -2.97727779 -1.26399229 -1.22229868
N -0.77936444 -0.63666026 -1.35676190
H 0.06569633 -0.66412467 -1.91365954
C -0.78821619 0.16540689 -0.12363279
H -1.40599795 -0.38600523 0.61211871
C -1.42111168 1.58155247 -0.26722398
O -0.82816954 2.59398482 0.10684191
N -2.68594643 1.58283403 -0.74465048
H -1.69169772 -1.97590895 -2.65405886
H -3.19840759 0.71058265 -0.81945044
H -3.17291537 2.46261884 -0.82650299
