18

H 1.226192214534 0.759661833668 -0.596752981457
H 0.777621172731 0.860385889263 1.111237313809
C 0.663499237646 0.283912030391 0.201745738766
S 1.389000633475 -1.451291004501 0.495939042931
C 3.022134171068 -0.978805773526 0.839269026034
N 4.126184950679 -0.688994194840 1.064923828548
C -2.071573154967 -1.347036686710 -1.680056853315
O -3.096949662310 -1.328370020518 -0.975695551155
N -0.954379121909 -0.642803378268 -1.386811265994
H -0.181895524254 -0.658105431529 -2.031126771454
C -0.806969880732 0.130575784955 -0.151205529156
H -1.331903905554 -0.420221244851 0.635182135682
C -1.454649531866 1.526132380023 -0.241735764759
O -0.819883626584 2.547344762543 0.072441667611
N -2.745621948133 1.533757101872 -0.638353589324
H -2.005210308133 -1.941045300882 -2.593944294349
H -3.278258654967 0.677462488660 -0.702078692996
H -3.216441002863 2.418989134755 -0.696558865475
