18

H 1.20240146 1.73816341 0.19723905
H 0.43151870 1.52550969 1.76816495
C 0.73226144 1.00346814 0.85561005
S 2.07708526 -0.20710711 1.38929777
C 1.95497717 -1.51070129 0.31377698
N 1.91537488 -2.41484042 -0.44569228
C -0.97036669 -1.20563459 -1.62081734
O -2.06521560 -1.53321410 -1.14782545
N -0.18974343 -0.22337349 -1.07161860
H 0.63526441 0.07754044 -1.57551700
C -0.53813888 0.44075281 0.18578792
H -1.00035933 -0.32329902 0.84113657
C -1.57347867 1.59204452 0.00091601
O -1.36605093 2.72053667 0.45027546
N -2.73016319 1.22328968 -0.59305429
H -0.53445667 -1.68117251 -2.51004157
H -2.93372454 0.23853474 -0.72748053
H -3.45904139 1.91065443 -0.71093770
