18

H 1.45763485 -0.63746571 -0.52733824
H 1.27082897 1.14799611 -0.34186038
C 0.91741743 0.16385702 -0.02086232
S 1.30819817 -0.01945787 1.78617678
C 2.99198388 0.11722905 1.69024887
N 4.16200029 0.21976653 1.58355932
C -1.99987130 -1.16172330 -1.84146312
O -2.93778197 -1.31382758 -1.05052662
N -0.85720758 -0.47889395 -1.52441234
H -0.18098848 -0.29047972 -2.25379554
C -0.59919714 0.04050412 -0.17398602
H -1.01548291 -0.71261240 0.52361116
C -1.30338303 1.40397951 0.11389190
O -0.67795422 2.38546256 0.51301111
N -2.64680091 1.38015342 -0.03621373
H -2.00088600 -1.58580184 -2.85558901
H -3.12834014 0.49510929 -0.15182926
H -3.17202490 2.21735777 0.16660245
