18

H 0.54477086 -0.24338663 1.69454294
H 0.80960137 -1.61003971 0.61730542
C 0.53176371 -0.55552288 0.64786662
S 1.98045038 0.37617849 -0.10201314
C 3.18200876 -0.30486810 0.87850164
N 3.99053491 -0.80536670 1.57608440
C -2.70113731 -1.92187305 -0.54343359
O -3.62956863 -1.14862671 -0.27744014
N -1.37772753 -1.58467178 -0.43696442
H -0.68666049 -2.23173064 -0.79670442
C -0.91107436 -0.29291248 0.10941345
H -1.58470073 -0.05128775 0.95328418
C -1.05696530 0.86710711 -0.94439309
O -0.12819996 1.60467548 -1.26598780
N -2.31333097 1.04959566 -1.40760586
H -2.86907850 -2.96223542 -0.85688788
H -3.09100875 0.57885885 -0.95979682
H -2.48936347 1.79909429 -2.05969849
