18

H -0.648136856214 1.606326612250 -1.403879300504
H 0.886788114721 1.382370059784 -0.554371751064
C 0.085932002734 0.874778934379 -1.077284842078
S 0.815011985185 0.029036312021 -2.618892158774
C 1.403570140833 1.449025034584 -3.422286725657
N 1.800673127153 2.386012968521 -3.986384529902
C -2.016657071511 -2.132753751357 -0.610062216952
O -1.554129268688 -2.791160402550 0.338944646016
N -1.621980478564 -0.872654611200 -0.903945173517
H -2.084550712590 -0.374044604462 -1.645284901824
C -0.532577204007 -0.196937024263 -0.194466037290
H 0.209777991989 -0.961726151485 0.053357253813
C -0.989701004515 0.441685970918 1.131810689297
O -0.727765131953 1.627945909295 1.393505650132
N -1.640780511792 -0.389745534141 1.973730972804
H -2.782684791221 -2.534164524421 -1.276739405507
H -1.667844514823 -1.386030303522 1.807230765438
H -1.943298614137 -0.024039526411 2.858861571499
