18

H 1.13939347 1.31092113 -1.48481046
H 1.34980400 1.43487337 0.27035244
C 1.04827030 0.76756113 -0.54239820
S 2.23536752 -0.66763984 -0.53239685
C 1.99213636 -1.23447137 1.04581547
N 1.80516746 -1.59254333 2.15397802
C -1.79792081 -1.51179018 -1.23562196
O -2.48421737 -1.60426601 -0.21186965
N -0.80651458 -0.58161688 -1.38774271
H -0.35671478 -0.48800727 -2.28926367
C -0.39937751 0.31505467 -0.29732516
H -0.46798036 -0.27560550 0.63801988
C -1.30889424 1.56132161 -0.09264207
O -0.83814737 2.69841647 -0.04107040
N -2.61584205 1.27738537 0.10280545
H -1.91911907 -2.18322478 -2.09727628
H -2.90247452 0.31897894 0.27181973
H -3.25666844 2.03502847 0.28431940
