18

H 1.24498951 1.54641910 0.27654056
H 0.38008386 1.47709952 1.81627870
C 0.67424151 0.89269265 0.94071559
S 1.83123390 -0.44741243 1.56942244
C 2.22828050 -1.28639670 0.15126228
N 2.50565444 -1.82972988 -0.86117843
C -1.11287361 -1.30245124 -1.50863627
O -2.24937114 -1.51180937 -1.06816090
N -0.27190694 -0.36279340 -0.97661862
H 0.58647674 -0.15441246 -1.47112479
C -0.60601493 0.39680032 0.22991283
H -1.16375816 -0.28653648 0.89899436
C -1.52594210 1.62159905 -0.06251489
O -1.24188525 2.74965423 0.34367883
N -2.68726796 1.32114546 -0.68571483
H -0.68314189 -1.86544529 -2.34854321
H -2.97284761 0.35185086 -0.77502763
H -3.34780687 2.06087606 -0.87006602
