18

H 0.72491284 0.55623737 1.58526312
H 0.98885388 -1.00752979 0.79146586
C 0.68571024 0.02759774 0.62940398
S 1.97783179 0.88440190 -0.42000665
C 3.33020333 0.50733515 0.52517093
N 4.24880413 0.22908762 1.21046723
C -2.16114147 -1.48472126 -1.16495932
O -3.22782838 -1.01808874 -0.74703010
N -0.93392595 -0.96041737 -0.85918269
H -0.11726753 -1.32823031 -1.33298676
C -0.74860279 0.15169775 0.08864911
H -1.45056752 -0.05803698 0.91903657
C -1.12837957 1.57461859 -0.44451543
O -0.37247546 2.53696494 -0.33907564
N -2.37674850 1.66947701 -0.95090544
H -2.11498898 -2.38597088 -1.79269087
H -3.03589468 0.91136516 -0.81580197
H -2.70035139 2.56536409 -1.28307994
