18

H 1.02169927 -0.62721703 -1.85534873
H 0.73527207 0.02149262 -0.22629707
C 0.34617886 -0.64987981 -0.99869953
S 0.33229354 -2.33290616 -0.22086354
C 1.99868681 -2.51200449 0.01623324
N 3.16552493 -2.59764324 0.16650704
C -2.64216937 -0.93988352 -3.16627432
O -3.65309898 -0.74563351 -2.48142878
N -1.37485964 -0.68423461 -2.71834477
H -0.60209917 -0.76064875 -3.36730898
C -1.09787710 -0.25925193 -1.34073066
H -1.81037526 -0.81097902 -0.69658939
C -1.34972085 1.25001639 -1.02768753
O -0.49783897 1.95200954 -0.48080673
N -2.59421835 1.68293235 -1.32999190
H -2.68183103 -1.35775003 -4.18217294
H -3.31831427 1.01384993 -1.56802628
H -2.83973546 2.63878829 -1.12017012
