18

H 1.220143241624 0.419654685274 -0.360773231874
H 0.772447463597 0.708952591713 1.325636008614
C 0.652691535641 0.038270565623 0.483875038716
S 1.360467829225 -1.661880121708 0.962048807949
C 2.997805665965 -1.171597104948 1.256593023625
N 4.104304796683 -0.868796624605 1.450976432053
C -2.096563458321 -1.757617458335 -1.219330693012
O -3.122884830596 -1.654524760315 -0.523044553903
N -0.972869925701 -1.036970714273 -1.000375836349
H -0.207306016361 -1.114809854843 -1.648517811429
C -0.818845728157 -0.137803681748 0.146400800302
H -1.350651138382 -0.597514168991 0.984765394827
C -1.454491151038 1.245224122449 -0.093778050824
O -0.811103019672 2.288674190714 0.110828554043
N -2.744904071013 1.220892596577 -0.492505680406
H -2.035318670835 -2.446037964409 -2.064688281980
H -3.283803055461 0.366505155756 -0.465853671769
H -3.209219558536 2.098791210761 -0.642498168158
