18

H 1.28127434 1.13433713 -1.05701126
H 1.17663344 1.24726951 0.70813265
C 0.97291384 0.60430736 -0.15372517
S 1.96702143 -0.96514861 0.00974640
C 2.79619469 -0.62606948 1.44671349
N 3.35779219 -0.35193739 2.44709703
C -1.85965163 -1.42253504 -1.41025071
O -2.71853419 -1.48894874 -0.52417408
N -0.79190437 -0.56819569 -1.35447895
H -0.21287670 -0.45495751 -2.17725610
C -0.51652118 0.26740157 -0.17656503
H -0.79658669 -0.31914404 0.72024797
C -1.34480883 1.58652630 -0.14734105
O -0.80436501 2.68486150 -0.01441807
N -2.68412232 1.40761702 -0.19392698
H -1.87643436 -2.05906245 -2.30626383
H -3.07331415 0.47827483 -0.07676785
H -3.28456551 2.21655573 -0.14053344
