18

H 0.64044922 0.53617817 1.54109673
H 0.59516932 -1.24744098 1.45073993
C 0.47669963 -0.32302988 0.88430661
S 1.79879948 -0.26634638 -0.42800005
C 3.16286605 -0.36678832 0.56683132
N 4.09124853 -0.43624641 1.29063211
C -2.34440870 -1.81729055 -1.02834986
O -3.39960184 -1.31131902 -0.62850632
N -1.10646344 -1.33669631 -0.69510971
H -0.29519791 -1.75847753 -1.12961383
C -0.92216466 -0.23211896 0.26705024
H -1.67141525 -0.39514404 1.06557644
C -1.18540468 1.20271425 -0.29154142
O -0.37886168 2.11766524 -0.12809314
N -2.39435516 1.36593975 -0.87227751
H -2.31867341 -2.71721658 -1.65893022
H -3.10285166 0.64747050 -0.77244810
H -2.64593383 2.27756004 -1.22360623
