18

H 1.50869446 -0.08123213 -0.76028084
H 1.15321204 1.38271072 0.19915503
C 0.90672869 0.32666068 0.05291282
S 1.40628380 -0.55460162 1.60497529
C 3.06520668 -0.22097086 1.56375404
N 4.21512716 0.03395543 1.50149168
C -1.93960011 -1.25665915 -1.71952847
O -2.88951281 -1.37217879 -0.93664793
N -0.82692564 -0.51072780 -1.44003112
H -0.14398367 -0.35973309 -2.17151974
C -0.61481412 0.13182500 -0.13389161
H -1.04128234 -0.55614200 0.62107672
C -1.37303524 1.49166187 0.01317317
O -0.79575935 2.52878793 0.34233165
N -2.71020759 1.40905206 -0.17000014
H -1.90500370 -1.76467888 -2.69369714
H -3.15943189 0.50122009 -0.21943278
H -3.26755135 2.24220352 -0.05461564
