18

H 0.56384352 0.00093770 1.70256633
H 0.65735578 -1.60521589 0.97361444
C 0.46697026 -0.55146738 0.76471855
S 1.87573473 0.11356075 -0.28006411
C 3.14852923 -0.40404693 0.70932990
N 4.00832536 -0.77830103 1.42473221
C -2.53220699 -1.87357798 -0.90414582
O -3.54429883 -1.28952523 -0.49792788
N -1.25781150 -1.44576495 -0.64219997
H -0.48604004 -1.90310049 -1.11353085
C -0.96498755 -0.30119135 0.24409280
H -1.69348891 -0.33287887 1.07535518
C -1.15842041 1.04735500 -0.53557267
O -0.26956939 1.88919096 -0.63114563
N -2.40386580 1.24167314 -1.02285648
H -2.57839267 -2.80568074 -1.48502021
H -3.16053075 0.63071827 -0.73717671
H -2.60774904 2.10230802 -1.50833306
