18

H 0.25203373 -0.74422566 -1.26527204
H -0.61639867 -1.47871693 0.09216635
C -0.62424405 -1.34048404 -0.99078783
S -0.40792086 -3.00091564 -1.81292550
C 1.08311786 -3.43626210 -1.14119607
N 2.12607261 -3.70282809 -0.65901510
C -3.54628838 -0.85082794 -3.26770596
O -4.48559533 -0.40650133 -2.59880862
N -2.26487968 -0.93229829 -2.79338802
H -1.51997758 -1.14003955 -3.44797316
C -1.91608951 -0.59825323 -1.40164442
H -2.76442575 -0.90388315 -0.76063536
C -1.69201514 0.94083912 -1.24970970
O -0.65647585 1.40012531 -0.76639454
N -2.75806121 1.70080487 -1.58908839
H -3.67001472 -1.23364482 -4.29049098
H -3.65928598 1.26492169 -1.75161946
H -2.69467648 2.70161579 -1.47794220
