18

H 0.774592672354 -0.574903886232 -1.657642540849
H 0.209651997811 -0.704673724594 0.014679252379
C -0.025019732124 -0.935464539722 -1.016717699823
S -0.130061521256 -2.827471930122 -1.210666555814
C 1.494737125800 -3.215080175319 -0.741173703934
N 2.578621050695 -3.511261675429 -0.439689313732
C -2.930568479295 -0.704407149455 -3.289242864618
O -3.933454350618 -0.417880864753 -2.610694059381
N -1.667121481390 -0.649333556710 -2.809394729017
H -0.894730558630 -0.851472017017 -3.421322532332
C -1.369236825270 -0.346176585976 -1.406444049791
H -2.171146529648 -0.791149219841 -0.810135278466
C -1.364076876761 1.167032936771 -1.112793262910
O -0.406290278221 1.698057203486 -0.525506242513
N -2.476256944893 1.830413836832 -1.496316412672
H -3.005741096877 -1.022062585173 -4.331215758321
H -3.302450531514 1.331149911813 -1.794083397860
H -2.527638839561 2.816530287869 -1.313310651019
