18

H 1.23527846 1.07043727 -1.39498222
H 1.30359350 1.24859660 0.36606467
C 1.01695147 0.57483036 -0.44715763
S 2.03062752 -0.97982116 -0.31067741
C 2.29050738 -0.98451282 1.36318960
N 2.45089864 -0.95117448 2.53126540
C -1.93174716 -1.49114560 -1.35003529
O -2.70211283 -1.51570499 -0.38377169
N -0.86148001 -0.64267225 -1.43241758
H -0.35332806 -0.57986463 -2.30542818
C -0.47107533 0.23845711 -0.32239526
H -0.65121437 -0.33171590 0.61142395
C -1.29411915 1.55441959 -0.19944529
O -0.74259420 2.65221564 -0.11397129
N -2.63068028 1.37387107 -0.10975688
H -2.03791892 -2.16362680 -2.21295269
H -3.00403045 0.44276835 0.04061851
H -3.22335023 2.18082164 0.01377126
