ModifiedRes-opt-1_3-11-148.xyz
 OpenBabel06152213213D

 18 17  0  0  1  0  0  0  0  0999 V2000
    1.0709    0.2352   -1.0867 H   0  0  0  0  0  0  0  0  0  0  0  0
    0.6237   -0.2570    0.5515 H   0  0  0  0  0  0  0  0  0  0  0  0
    0.4833   -0.4670   -0.5015 C   0  0  0  0  0  0  0  0  0  0  0  0
    1.1206   -2.2249   -0.8559 S   0  0  0  0  0  0  0  0  0  0  0  0
    2.7744   -1.9846   -0.3918 C   0  0  0  0  0  0  0  0  0  0  0  0
    3.8910   -1.8475   -0.0951 N   0  0  0  0  0  0  0  0  0  0  0  0
   -2.3256   -1.1864   -2.7989 C   0  0  0  0  0  0  0  0  0  0  0  0
   -3.3505   -1.3713   -2.1183 O   0  0  0  0  0  0  0  0  0  0  0  0
   -1.1751   -0.6875   -2.2913 N   0  0  0  0  0  0  0  0  0  0  0  0
   -0.4022   -0.5102   -2.9105 H   0  0  0  0  0  0  0  0  0  0  0  0
   -0.9921   -0.4139   -0.8635 C   0  0  2  0  0  0  0  0  0  0  0  0
   -1.5459   -1.1832   -0.3167 H   0  0  0  0  0  0  0  0  0  0  0  0
   -1.5684    0.9518   -0.4415 C   0  0  0  0  0  0  0  0  0  0  0  0
   -0.8839    1.7623    0.2057 O   0  0  0  0  0  0  0  0  0  0  0  0
   -2.8562    1.1621   -0.7898 N   0  0  0  0  0  0  0  0  0  0  0  0
   -2.2869   -1.4175   -3.8654 H   0  0  0  0  0  0  0  0  0  0  0  0
   -3.4308    0.4111   -1.1460 H   0  0  0  0  0  0  0  0  0  0  0  0
   -3.2819    2.0315   -0.5222 H   0  0  0  0  0  0  0  0  0  0  0  0
  1  3  1  0  0  0  0
  3  2  1  0  0  0  0
  4  3  1  0  0  0  0
  4  5  1  0  0  0  0
  5  6  3  0  0  0  0
  7  9  1  0  0  0  0
  7  8  2  0  0  0  0
  9 11  1  0  0  0  0
 10  9  1  0  0  0  0
 11  3  1  0  0  0  0
 11 13  1  0  0  0  0
 11 12  1  1  0  0  0
 13 14  2  0  0  0  0
 15 18  1  0  0  0  0
 15 13  1  0  0  0  0
 16  7  1  0  0  0  0
 17 15  1  0  0  0  0
M  END
