22

C 1.938007858252 0.603292665083 -0.023826254652
N 0.908344723387 -0.043983560453 -0.683189510796
C -0.387751534408 -0.180870245990 -0.086906272983
C -1.096610757125 -1.373683972883 -0.259459297534
C 1.114258978311 -0.638653180734 -2.007944101700
C -0.976694471973 0.869048875010 0.624190046402
C -2.379614479336 -1.513376703891 0.263928743141
C -2.964413925171 -0.468702863288 0.973481934311
C -2.254588089948 0.717447952573 1.152077880357
H -0.642231775324 -2.201404969787 -0.786441565078
H -0.428745285332 1.782413383467 0.782968348188
C 3.232388218247 0.790348268311 -0.780140635026
O 1.815533586905 1.043125955767 1.131613685933
H 0.150995597651 -0.746599893918 -2.499422095438
H 1.729823530680 0.007133764908 -2.629598696493
H 1.589547823614 -1.620840179379 -1.948435332505
H -2.914202104337 -2.443054771005 0.123553520496
H -2.696913888051 1.535311382657 1.704249478678
H 3.642894211502 -0.149516532870 -1.150508226868
H 3.097421453883 1.459320278650 -1.632614259800
H -3.957774898129 -0.577998196123 1.386124430533
H 3.942985080756 1.241629677769 -0.095228515661
