22

C 2.04520655 -0.38906311 -0.19939124
N 0.89682855 0.32594958 -0.65886282
C -0.43392504 0.11627204 -0.09402375
C -0.80573945 -1.08337123 0.57987989
C 0.95816124 1.12117252 -1.92133675
C -1.39530598 1.17009355 -0.13398926
C -2.08245995 -1.22951368 1.13964991
C -3.01907795 -0.19402697 1.06256934
C -2.66844904 1.00197174 0.42916305
H -0.10206391 -1.90875329 0.66454329
H -1.15745056 2.12991880 -0.59665046
C 3.40313697 0.00892910 -0.79427645
O 2.00228742 -1.25752678 0.67139329
H 0.00922360 1.07632877 -2.45802291
H 1.18386326 2.16477309 -1.69683261
H 1.71237037 0.73841771 -2.60851043
H -2.34430565 -2.16496159 1.63730393
H -3.38913569 1.81992051 0.36979938
H 3.56275830 -0.48742594 -1.75173980
H 3.49425287 1.08781101 -0.92158058
H -4.01295259 -0.31675668 1.49687725
H 4.19945768 -0.30886814 -0.11969826
