22

C 2.007603347226 -0.370019309424 -0.203824971556
N 0.869460846026 0.273844559346 -0.663233514599
C -0.419343047480 0.121410029093 -0.052071278509
C -0.763990194576 -0.992818781022 0.727329352659
C 0.949445946376 1.173365433731 -1.820264709229
C -1.372194609971 1.137756146845 -0.225656630581
C -2.035045312940 -1.084495643950 1.287935684412
C -2.982294668311 -0.082481663877 1.098336691964
C -2.639306879836 1.031565499365 0.339031799350
H -0.039638685231 -1.766410608126 0.902020173352
H -1.131577371928 2.029540372650 -0.783868193668
C 3.323113542459 -0.030399524039 -0.869912481616
O 1.992796531070 -1.187897029724 0.731684281923
H 0.043867124621 1.074330941363 -2.414843869354
H 1.063788639609 2.218134079430 -1.521118280560
H 1.785477510017 0.904244795023 -2.455247956150
H -2.279832357075 -1.955076764384 1.881275546495
H -3.352585367611 1.830768820819 0.188925662247
H 3.376078073245 -0.423526158561 -1.887219678740
H 3.507748290952 1.043410717418 -0.908289650397
H -3.966049440151 -0.164902925164 1.538989155900
H 4.102794761495 -0.504987947860 -0.282454009093
