22

C 1.51866727 -0.36876884 -1.32388970
N 1.04274899 0.43986723 -0.26436279
C -0.23570394 0.16220021 0.34378590
C -0.33587264 0.02842377 1.75348938
C 1.74498246 1.67178011 0.17321513
C -1.41348856 0.03189976 -0.43899029
C -1.58060040 -0.21659380 2.35075311
C -2.73744505 -0.33744613 1.57033197
C -2.64753115 -0.21601008 0.17769552
H 0.55270407 0.11474281 2.38236432
H -1.36141875 0.11879814 -1.52534390
C 2.93233244 -0.08799469 -1.84371631
O 0.85162543 -1.28410423 -1.80256905
H 2.12906172 2.23199881 -0.67996335
H 1.06710607 2.33537672 0.71310168
H 2.57382053 1.41782804 0.83555298
H -1.64185183 -0.30940197 3.43660194
H -3.54404425 -0.31030911 -0.43766299
H 2.94502378 0.81110010 -2.45988535
H 3.64676704 0.01968093 -1.02750735
H -3.70291858 -0.52551862 2.04412718
H 3.26271237 -0.92212315 -2.46446103
