22

C 1.487341179211 -0.344284785484 -1.314989231147
N 0.988663055938 0.482031781096 -0.325542606685
C -0.267376283117 0.190358328525 0.300801108552
C -0.342363832049 0.128390888508 1.693558837297
C 1.789795729969 1.572748708492 0.236829025656
C -1.415447874386 -0.020006064072 -0.464139249110
C -1.561600339427 -0.120885091418 2.318683716171
C -2.708227702271 -0.329130717793 1.556741485616
C -2.627524497918 -0.283439836807 0.165781817435
H 0.551018562704 0.267422361452 2.287427453742
H -1.348647029687 0.001223088614 -1.539860398803
C 2.866715793543 -0.026625053982 -1.839364801319
O 0.840028163704 -1.303758174568 -1.765930533339
H 2.279926483653 2.137981205358 -0.553281355916
H 1.127643502865 2.250458788203 0.769152910261
H 2.552867022178 1.213030318707 0.932661202059
H -1.610250956137 -0.163254699308 3.398264413536
H -3.511538840342 -0.451482554795 -0.433894034019
H 2.874083979973 0.916022681111 -2.390965123436
H 3.608112894626 0.045119362741 -1.042624374432
H -3.653773233766 -0.530392413867 2.041006714107
H 3.147230180293 -0.826100538841 -2.517650235539
