22

C 1.87924971 -0.62870323 -0.56794631
N 0.90282689 0.40377453 -0.60966530
C -0.39078082 0.23132019 0.02368503
C -0.53621884 -0.44691053 1.26608505
C 1.23364402 1.77125124 -1.09641559
C -1.55953290 0.75721144 -0.59429057
C -1.79923297 -0.58670459 1.85721606
C -2.93881533 -0.05864130 1.23954441
C -2.81281255 0.61027921 0.01679558
H 0.33510708 -0.86735688 1.76865657
H -1.49673149 1.27502340 -1.55373283
C 3.25847600 -0.32785869 -1.16524358
O 1.66201430 -1.72561821 -0.05510800
H 1.17136191 1.80689074 -2.18505015
H 0.54389724 2.51185604 -0.68850847
H 2.23378487 2.07498203 -0.78692665
H -1.88938541 -1.11053710 2.81050083
H -3.69628650 1.02513637 -0.47204938
H 3.18115349 0.14620212 -2.14382218
H 3.83961633 0.30557558 -0.49483705
H -3.91870091 -0.16925480 1.70755083
H 3.80584588 -1.26236354 -1.29596731
