22

C 2.03361029 0.31996118 0.07144137
N 0.87637368 0.17502259 -0.72179641
C -0.40487322 0.06511367 -0.08157893
C -1.12557971 -1.15452718 -0.13276586
C 0.90279071 0.19043928 -2.20187808
C -0.99518716 1.18964620 0.54840632
C -2.39611539 -1.24194342 0.45392154
C -2.97002041 -0.13000772 1.08504841
C -2.26694727 1.08145402 1.12802307
H -0.69624357 -2.02943946 -0.62545016
H -0.46011542 2.14028127 0.58821929
C 3.36353758 0.54601851 -0.65301846
O 1.98279327 0.31476065 1.29941821
H -0.10678908 0.12444178 -2.61068757
H 1.34625465 1.11652932 -2.56984104
H 1.47408450 -0.65756840 -2.58206491
H -2.94090836 -2.18666843 0.41089161
H -2.71122118 1.95316553 1.61161957
H 3.57610058 -0.26010279 -1.35513598
H 3.36140645 1.49921109 -1.18204431
H -3.96013339 -0.20590233 1.53870337
H 4.17386345 0.57140765 0.07683093
