
 OpenBabel11102110373D

 12 12  0  0  0  0  0  0  0  0999 V2000
    3.8590    1.6349   -3.6015 C   0  0  0  0  0  0  0  0  0  0  0  0
    4.0372    0.3727   -3.0889 C   0  0  0  0  0  0  0  0  0  0  0  0
    3.5334    1.1624   -0.8633 C   0  0  0  0  0  0  0  0  0  0  0  0
    3.8728    0.1587   -1.7382 C   0  0  0  0  0  0  0  0  0  0  0  0
    3.3553    2.4401   -1.3944 C   0  0  0  0  0  0  0  0  0  0  0  0
    3.5217    2.6313   -2.7274 C   0  0  0  0  0  0  0  0  0  0  0  0
    3.9846    1.8164   -4.6657 H   0  0  0  0  0  0  0  0  0  0  0  0
    4.3051   -0.4395   -3.7540 H   0  0  0  0  0  0  0  0  0  0  0  0
    4.0156   -0.8353   -1.3516 H   0  0  0  0  0  0  0  0  0  0  0  0
    3.0898    3.2771   -0.7629 H   0  0  0  0  0  0  0  0  0  0  0  0
    3.3817    3.6237   -3.1393 H   0  0  0  0  0  0  0  0  0  0  0  0
    3.4151    0.9786    0.1453 H   0  0  0  0  0  0  0  0  0  0  0  0
  1  7  1  0  0  0  0
  2  1  2  0  0  0  0
  2  8  1  0  0  0  0
  3  4  2  0  0  0  0
  3  5  1  0  0  0  0
  3 12  1  0  0  0  0
  4  2  1  0  0  0  0
  4  9  1  0  0  0  0
  5  6  2  0  0  0  0
  5 10  1  0  0  0  0
  6  1  1  0  0  0  0
  6 11  1  0  0  0  0
M  END
$$$$
