12

C -1.108160741991 -0.846220311080 -0.049887143664
C -1.287816634546 0.536785197559 -0.010129464412
C 1.108186680801 0.846243919977 0.049888336769
C -0.179613507368 1.382988007785 0.039768414023
C 1.287776331738 -0.536784188324 0.010127926615
C 0.179626307596 -1.383001501097 -0.039767660926
H -1.971594386647 -1.505542007322 -0.088765799713
H -2.291224967962 0.954878606953 -0.018017144370
H -0.319550564102 2.460522732324 0.070742757056
H 2.291168979326 -0.954922793134 0.018013479961
H 0.319543557577 -2.460554227149 -0.070743917579
H 1.971676001341 1.505485227007 0.088765761837
