12

C          3.85900        1.63490       -3.60150
C          4.03720        0.37270       -3.08890
C          3.53340        1.16240       -0.86330
C          3.87280        0.15870       -1.73820
C          3.35530        2.44010       -1.39440
C          3.52170        2.63130       -2.72740
H          3.98460        1.81640       -4.66570
H          4.30510       -0.43950       -3.75400
H          4.01560       -0.83530       -1.35160
H          3.08980        3.27710       -0.76290
H          3.38170        3.62370       -3.13930
H          3.41510        0.97860        0.14530
