
     RDKit          3D

 12 12  0  0  0  0  0  0  0  0999 V2000
   -1.0721   -0.8391   -0.0489 C   0  0  0  0  0  0  0  0  0  0  0  0
   -1.2459    0.5270   -0.0096 C   0  0  0  0  0  0  0  0  0  0  0  0
    1.0787    0.8265    0.0486 C   0  0  0  0  0  0  0  0  0  0  0  0
   -0.1775    1.3978    0.0403 C   0  0  0  0  0  0  0  0  0  0  0  0
    1.2462   -0.5405    0.0091 C   0  0  0  0  0  0  0  0  0  0  0  0
    0.1808   -1.4133   -0.0407 C   0  0  0  0  0  0  0  0  0  0  0  0
   -1.9293   -1.4770   -0.0870 H   0  0  0  0  0  0  0  0  0  0  0  0
   -2.2493    0.9622   -0.0169 H   0  0  0  0  0  0  0  0  0  0  0  0
   -0.3249    2.4713    0.0709 H   0  0  0  0  0  0  0  0  0  0  0  0
    2.2461   -0.9372    0.0176 H   0  0  0  0  0  0  0  0  0  0  0  0
    0.3150   -2.4966   -0.0720 H   0  0  0  0  0  0  0  0  0  0  0  0
    1.9323    1.5188    0.0884 H   0  0  0  0  0  0  0  0  0  0  0  0
  1  7  1  0
  2  1  2  0
  2  8  1  0
  3  4  2  0
  3  5  1  0
  3 12  1  0
  4  2  1  0
  4  9  1  0
  5  6  2  0
  5 10  1  0
  6  1  1  0
  6 11  1  0
M  END
