34
0 1 C17H14N2O
C                     1.525073948115    -0.092108711847     1.109431530179
C                     0.749673948115     0.408391288153     0.176031530179
N                    -0.562926051885     0.848991288153     0.645231530179
C                    -1.759226051885     0.159991288153     0.358631530179
H                    -0.531226051885     1.722291288153     1.214031530179
C                     2.880273948115    -0.623708711847     1.076431530179
N                     2.181673948115    -0.920408711847     3.198931530179
C                     1.106573948115    -0.307008711847     2.521731530179
C                     3.261973948115    -1.113008711847     2.316431530179
C                     0.955473948115     0.525691288153    -1.244268469821
C                     1.294873948115    -0.478008711847    -2.119168469821
C                     0.777373948115     1.803391288153    -1.775368469821
C                     1.459273948115    -0.264008711847    -3.469868469821
C                     0.943773948115     1.994591288153    -3.108368469821
C                     1.281073948115     0.998191288153    -3.982468469821
C                    -1.809526051885    -1.026808711847    -0.305868469821
C                    -2.958726051885     0.740591288153     0.770531530179
C                    -3.030426051885    -1.628008711847    -0.559068469821
C                    -4.159126051885     0.122191288153     0.507131530179
C                    -4.250826051885    -1.079008711847    -0.163868469821
H                     2.183073948115    -1.192108711847     4.203831530179
O                     0.002073948115     0.001491288153     3.015531530179
H                     1.437673948115    -1.472008711847    -1.732568469821
H                     0.511873948115     2.640391288153    -1.143868469821
H                     1.727173948115    -1.076208711847    -4.134968469821
H                     0.803773948115     2.986991288153    -3.520268469821
H                     1.406673948115     1.179691288153    -5.046668469821
H                    -0.883226051885    -1.517808711847    -0.636968469821
H                    -2.914126051885     1.675791288153     1.292031530179
H                    -3.073926051885    -2.575908711847    -1.089868469821
H                    -5.062026051885     0.627391288153     0.865031530179
H                     3.480373948115    -0.634908711847     0.236931530179
H                     4.171873948115    -1.540408711847     2.549931530179
H                    -5.154426051885    -1.537608711847    -0.359168469821
