
 OpenBabel11102110373D

 14 14  0  0  0  0  0  0  0  0999 V2000
   -1.6729   -0.4423    0.2171 C   0  0  0  0  0  0  0  0  0  0  0  0
   -2.8888   -1.1054   -0.0710 N   0  0  0  0  0  0  0  0  0  0  0  0
   -0.4525   -0.9913   -0.1781 C   0  0  0  0  0  0  0  0  0  0  0  0
    0.8187    0.7967    0.7396 C   0  0  0  0  0  0  0  0  0  0  0  0
    0.7684   -0.3901    0.0751 C   0  0  0  0  0  0  0  0  0  0  0  0
   -0.3808    1.3773    1.1515 C   0  0  0  0  0  0  0  0  0  0  0  0
   -1.5812    0.7589    0.8881 C   0  0  0  0  0  0  0  0  0  0  0  0
   -0.4960   -1.9392   -0.7089 H   0  0  0  0  0  0  0  0  0  0  0  0
    1.6947   -0.8811   -0.2560 H   0  0  0  0  0  0  0  0  0  0  0  0
   -0.3362    2.3125    1.6730 H   0  0  0  0  0  0  0  0  0  0  0  0
   -2.4841    1.2641    1.2460 H   0  0  0  0  0  0  0  0  0  0  0  0
   -2.8793   -1.9626   -0.5551 H   0  0  0  0  0  0  0  0  0  0  0  0
   -3.7445   -0.7097    0.2126 H   0  0  0  0  0  0  0  0  0  0  0  0
    1.7223    1.2558    0.9339 H   0  0  0  0  0  0  0  0  0  0  0  0
  2  1  1  0  0  0  0
  2 12  1  0  0  0  0
  2 13  1  0  0  0  0
  3  1  2  0  0  0  0
  3  8  1  0  0  0  0
  4  5  2  0  0  0  0
  4  6  1  0  0  0  0
  4 14  1  0  0  0  0
  5  3  1  0  0  0  0
  5  9  1  0  0  0  0
  6  7  2  0  0  0  0
  6 10  1  0  0  0  0
  7  1  1  0  0  0  0
  7 11  1  0  0  0  0
M  END
$$$$
