14
0 1 C6H7N
C                    -0.845137223522    -0.411846211155    -0.172881078066
N                    -2.061037223522    -1.074946211155    -0.460981078066
C                     0.375262776478    -0.960846211155    -0.568081078066
C                     1.646462776478     0.827153788845     0.349618921934
C                     1.596162776478    -0.359646211155    -0.314881078066
C                     0.446962776478     1.407753788845     0.761518921934
C                    -0.753437223522     0.789353788845     0.498118921934
H                     0.331762776478    -1.908746211155    -1.098881078066
H                     2.522462776478    -0.850646211155    -0.645981078066
H                     0.491562776478     2.342953788845     1.283018921934
H                    -1.656337223522     1.294553788845     0.856018921934
H                    -2.051537223522    -1.932146211155    -0.945081078066
H                    -2.916737223522    -0.679246211155    -0.177381078066
H                     2.550062776478     1.286253788845     0.543918921934
