10

 Cl     -0.83897     1.45886    -0.04248
 Cl      1.68221    -0.00123    -0.06826
 Cl     -0.84295    -1.45400    -0.09393
  C     -0.00087    -0.00825     0.46608
  H      0.00035    -0.02741     1.55184
 Cl     -2.66611     2.13172    -0.36961
 Cl     -0.14493     0.67163    -0.39539
 Cl     -2.67008    -0.78114    -0.42107
  C     -1.82801     0.66461     0.13895
  H     -1.82678     0.64545     1.22470
