10

Cl -1.08109335 1.84306959 0.68023581
Cl 1.44416122 0.44381858 1.01184242
Cl -1.03983507 -1.05435746 0.89843623
C -0.27414546 0.45117096 1.39340933
H -0.37245956 0.53230952 2.47597284
Cl 0.07952565 0.20861274 -2.58725144
Cl 2.59889389 -1.20750880 -2.87658604
Cl 0.08762230 -2.66687318 -2.99577160
C 0.94111745 -1.29772761 -2.29344813
H 0.98007292 -1.45227433 -1.21600941
