8

 Cl     -0.83897     1.45886    -0.04248
 Cl      1.68221    -0.00123    -0.06826
 Cl     -0.84295    -1.45400    -0.09393
  C     -0.00087    -0.00825     0.46608
  H      0.00035    -0.02741     1.55184
  O     -0.81909     3.47874    -0.02260
  H     -1.27703     2.63337    -0.11162
  H     -0.57147     3.67314    -0.91245
