8

Cl -0.51084236 1.62653642 0.48245012
Cl 1.73598781 -0.12578960 -0.07620368
Cl -0.97828913 -1.15355173 -0.19782231
C 0.11021869 -0.01607829 0.58859066
H 0.16444069 -0.28384496 1.64378619
O -2.91051090 1.27186957 -2.19514388
H -2.64904875 0.70909940 -1.46589469
H -2.12977606 1.72497918 -2.51318240
