8

Cl -0.95592135 1.33302079 0.56515744
Cl 1.36715809 -0.06398809 -0.46415913
Cl -0.81975715 -1.55951467 0.71918235
C 0.10049394 -0.06012240 0.75746651
H 0.57786614 0.01433823 1.73456032
O -1.65942415 -0.13808904 -2.67696568
H -1.94686343 -0.57776351 -1.87657179
H -0.83137209 0.30533867 -2.49209003
