10

Cl -0.55619314 1.64855142 0.85062335
Cl 1.61476180 0.05885217 -0.24779493
Cl -1.08943224 -1.00398352 -0.20092132
C 0.08155759 0.02471452 0.61557051
H 0.26755787 -0.40402175 1.60035093
Cl -2.98914273 3.08456312 -3.12477443
Cl -0.52648860 1.54834683 -3.02599380
Cl -3.07639737 0.18503312 -3.29637784
C -2.23829507 1.57600523 -2.61800054
H -2.32071812 1.51352886 -1.53344193
