10

 Cl     -0.83897     1.45886    -0.04248
 Cl      1.68221    -0.00123    -0.06826
 Cl     -0.84295    -1.45400    -0.09393
  C     -0.00087    -0.00825     0.46608
  H      0.00035    -0.02741     1.55184
 Cl     -1.16611     1.13172    -1.86961
 Cl      1.35507    -0.32837    -1.89539
 Cl     -1.17008    -1.78114    -1.92107
  C     -0.32801    -0.33539    -1.36105
  H     -0.32678    -0.35455    -0.27530
