10

Cl -0.55530458 1.59016445 0.57859381
Cl 1.84963126 0.01061600 0.17270819
Cl -0.76337094 -1.16522049 -0.31000514
C 0.15737338 -0.01755834 0.65498173
H 0.11559839 -0.34944046 1.69246991
Cl -1.96799063 2.58711515 -3.94191854
Cl 0.40279145 1.07945150 -3.20438108
Cl -2.05957399 -0.31653132 -3.85713872
C -1.35579256 1.13661774 -3.15619060
H -1.65615178 1.17637576 -2.10987956
