8

 Cl     -0.83897     1.45886    -0.04248
 Cl      1.68221    -0.00123    -0.06826
 Cl     -0.84295    -1.45400    -0.09393
  C     -0.00087    -0.00825     0.46608
  H      0.00035    -0.02741     1.55184
  O     -1.31909     1.47874    -2.02260
  H     -1.77703     0.63337    -2.11162
  H     -1.07147     1.67314    -2.91245
