10

 Cl     -0.83897     1.45886    -0.04248
 Cl      1.68221    -0.00123    -0.06826
 Cl     -0.84295    -1.45400    -0.09393
  C     -0.00087    -0.00825     0.46608
  H      0.00035    -0.02741     1.55184
 Cl     -1.50544     4.61799    -0.46393
 Cl      1.01574     3.15790    -0.48971
 Cl     -1.50941     1.70513    -0.51539
  C     -0.66734     3.15088     0.04463
  H     -0.66611     3.13172     1.13039
