10

Cl -0.42538956 1.32807177 0.96974606
Cl 2.14238737 -0.02910837 0.88345963
Cl -0.31860139 -1.57264271 0.96846391
C 0.48562568 -0.09102170 1.47372290
H 0.52476757 -0.09026634 2.56295684
Cl -2.04038837 1.09085777 -3.29157998
Cl 0.42141376 -0.25282894 -2.53737227
Cl -2.03066671 -1.78046713 -2.83855055
C -1.33107399 -0.23346868 -2.37561195
H -1.56421435 -0.06888567 -1.32440458
