10

Cl -0.26778208 2.16619191 -0.99168653
Cl 2.11833167 0.52202850 -0.76058298
Cl -0.47144363 -0.72476213 -1.17713943
C 0.38968786 0.62673098 -0.44961603
H 0.24547280 0.56952315 0.62837125
Cl -2.27068195 0.14471986 2.14370563
Cl -0.00956514 -1.62467491 2.57053027
Cl -2.47552632 -2.66764978 1.44067455
C -1.76463158 -1.49337938 2.54217051
H -2.13000163 -1.71848820 3.54440277
