10

 Cl     -0.83897     1.45886    -0.04248
 Cl      1.68221    -0.00123    -0.06826
 Cl     -0.84295    -1.45400    -0.09393
  C     -0.00087    -0.00825     0.46608
  H      0.00035    -0.02741     1.55184
 Cl     -3.00544     4.11799    -0.46393
 Cl     -0.48426     2.65790    -0.48971
 Cl     -3.00941     1.20513    -0.51539
  C     -2.16734     2.65088     0.04463
  H     -2.16611     2.63172     1.13039
