10

Cl -0.37304180 0.56758603 -1.43310399
Cl 2.13751058 -0.65177664 -0.62879729
Cl -0.24402134 -2.29102083 -0.93472949
C 0.38440747 -0.70926552 -0.48767455
H 0.13346262 -0.54011512 0.55853750
Cl -2.37103071 2.95793270 0.78168251
Cl -0.01369992 1.95892987 2.15509893
Cl -2.36240198 0.27366448 1.89459023
C -1.77128529 1.92197356 2.07157338
H -2.15603963 2.31233147 3.01365276
