10

Cl -0.73321401 0.89248506 0.80473220
Cl 1.25912765 -1.14063054 1.37354265
Cl -1.28410331 -1.89307162 0.18657525
C -0.46116380 -0.78170129 1.27504450
H -0.88572320 -0.91968156 2.26952934
Cl 1.73450424 2.55386993 -2.26157532
Cl 3.76362331 0.49692925 -1.94188144
Cl 0.99813034 -0.25144972 -2.42147397
C 2.07709105 0.92746824 -1.68379940
H 1.89558773 0.91602225 -0.60986381
