8

Cl -0.21140753 1.67681408 0.70670168
Cl 1.66299249 -0.31319061 -0.27293923
Cl -1.16207882 -0.95239473 -0.05340056
C 0.17704028 -0.03709658 0.62870119
H 0.33644703 -0.38926886 1.64787297
O -3.50987964 1.77054948 -1.00584792
H -2.79179906 1.28066725 -0.60380576
H -3.16913475 2.21713997 -1.78070236
