8

Cl -0.36460626 1.64789667 0.86793355
Cl 1.71656655 -0.13796427 -0.08464291
Cl -1.07826358 -0.86680363 -0.38264442
C 0.10511544 -0.02826011 0.61355889
H 0.13032047 -0.51865979 1.58676642
O -2.44836309 2.11576977 -2.15237634
H -2.19049442 1.50010118 -1.46570163
H -1.66428511 2.57724017 -2.44925356
