10

Cl -1.13317831 1.21362186 1.11136526
Cl 1.53991703 0.39556287 0.32996069
Cl -0.75303737 -1.21413164 -0.43952542
C -0.06994419 -0.15055109 0.78481233
H 0.02388629 -0.72610312 1.70585457
Cl -0.40843875 4.75694900 -2.07652863
Cl 2.10512869 3.30891889 -2.25229462
Cl -0.40958409 1.90482995 -2.62485128
C 0.40788517 3.22393256 -1.79431596
H 0.36457553 3.01856071 -0.72523694
