10

Cl -0.11108031 0.37836858 -1.63586650
Cl 2.22768485 -1.01354776 -0.62163664
Cl -0.38303635 -2.28871206 -0.51843126
C 0.49469500 -0.76526874 -0.44318622
H 0.32411356 -0.33618405 0.54336486
Cl -1.81423988 3.36984286 0.03538738
Cl 0.37573780 2.37731663 1.66694175
Cl -2.14733025 0.94344703 1.59903360
C -1.37158309 2.52104706 1.51204776
H -1.73110133 3.11393045 2.35317525
