10

Cl -0.96239181 0.90248661 1.03915058
Cl 1.41574233 -0.74466034 1.27925253
Cl -1.09663672 -1.93739974 0.43862428
C -0.33718154 -0.69629783 1.42832283
H -0.58776961 -0.90545242 2.46829730
Cl 0.89740311 2.83746351 -2.56409874
Cl 3.20059948 1.13334142 -2.07254382
Cl 0.57062341 -0.04566862 -2.43306128
C 1.46997269 1.34302570 -1.83276038
H 1.29349865 1.41340172 -0.76035330
