10

Cl -0.29435524 0.32307852 -0.10800960
Cl 2.30139265 -0.92796253 0.26152798
Cl -0.11192140 -2.54418916 0.32162428
C 0.59364694 -0.97327144 0.68428141
H 0.51615868 -0.81731536 1.76034620
Cl -3.80116294 5.02153090 -0.35998481
Cl -1.16167320 3.91747820 -0.86196309
Cl -3.48972591 2.18119171 -0.88481087
C -2.75588136 3.61716469 -0.18039992
H -2.62926822 3.43388447 0.88662843
