10

Cl 0.01801591 1.49399504 1.37792005
Cl 1.98155244 -0.01447697 -0.14256155
Cl -0.00519400 -1.40755733 1.45567249
C 0.99677540 0.03269951 1.31509722
H 1.67346814 0.05016207 2.16955489
Cl -3.52743317 1.67556974 -0.69855516
Cl -1.40567880 0.10900121 -1.91587040
Cl -3.86052488 -1.18895379 -1.06378582
C -2.72010867 0.11259593 -0.74527303
H -2.28701237 -0.06279541 0.23863132
