10

 Cl     -0.83897     1.45886    -0.04248
 Cl      1.68221    -0.00123    -0.06826
 Cl     -0.84295    -1.45400    -0.09393
  C     -0.00087    -0.00825     0.46608
  H      0.00035    -0.02741     1.55184
 Cl     -1.66611     1.63172    -1.86961
 Cl      0.85507     0.17163    -1.89539
 Cl     -1.67008    -1.28114    -1.92107
  C     -0.82801     0.16461    -1.36105
  H     -0.82678     0.14545    -0.27530
