10

Cl -1.10629571 1.36637251 0.55403243
Cl 1.45735913 0.27328521 -0.25628512
Cl -0.88834002 -1.43953059 -0.16904104
C -0.07116071 -0.05720939 0.55087379
H 0.14979899 -0.30864589 1.58810310
Cl -0.98409382 3.55320929 -3.68400713
Cl 1.55571837 2.14050826 -3.73233921
Cl -0.91508762 0.67392735 -3.30873362
C -0.06558082 2.19317076 -3.04928821
H 0.03489222 2.33650249 -1.97407499
