8

 Cl     -0.83897     1.45886    -0.04248
 Cl      1.68221    -0.00123    -0.06826
 Cl     -0.84295    -1.45400    -0.09393
  C     -0.00087    -0.00825     0.46608
  H      0.00035    -0.02741     1.55184
  O      0.13884     4.32410     0.56642
  H     -0.31909     3.47874     0.47740
  H      0.38647     4.51851    -0.32343
