10

 Cl     -0.83897     1.45886    -0.04248
 Cl      1.68221    -0.00123    -0.06826
 Cl     -0.84295    -1.45400    -0.09393
  C     -0.00087    -0.00825     0.46608
  H      0.00035    -0.02741     1.55184
 Cl     -3.50544     3.11799    -1.96393
 Cl     -0.98426     1.65790    -1.98971
 Cl     -3.50941     0.20513    -2.01539
  C     -2.66734     1.65088    -1.45537
  H     -2.66611     1.63172    -0.36961
