10

Cl -0.92193801 1.45738709 0.61307861
Cl 1.59523061 0.12183885 0.08624586
Cl -0.88857433 -1.36907143 -0.03254096
C -0.02534638 -0.05038543 0.74857581
H 0.06815327 -0.29146472 1.80734426
Cl -0.98815072 2.62621931 -3.73100179
Cl 1.52926420 1.17758570 -3.83015524
Cl -0.98320503 -0.27924857 -3.75092704
C -0.12850555 1.17160947 -3.23949771
H -0.08971807 1.16711973 -2.15188180
