8

Cl -0.51940352 1.17279664 0.46432781
Cl 1.87091570 -0.40282577 -0.02395654
Cl -0.74164894 -1.67189720 -0.07574641
C 0.24257633 -0.40273685 0.64412776
H 0.32244402 -0.61037137 1.71117230
O -1.70412822 3.97576108 -0.79588546
H -2.56671193 3.74783683 -1.14316223
H -1.07186344 3.94465663 -1.51429723
