10

Cl -1.19486060 0.97342525 1.25429126
Cl 1.40192395 -0.31657298 1.11864973
Cl -0.89785931 -1.54629771 -0.16306635
C -0.33936576 -0.56334316 1.18571822
H -0.56146639 -1.10729035 2.10386182
Cl 0.28874648 4.15657698 -1.39613293
Cl 2.86561812 2.81447538 -1.49080913
Cl 0.45116343 1.37845759 -2.22861759
C 1.14011862 2.62912181 -1.19959067
H 1.01319148 2.31303719 -0.16506438
