10

 Cl     -0.83897     1.45886    -0.04248
 Cl      1.68221    -0.00123    -0.06826
 Cl     -0.84295    -1.45400    -0.09393
  C     -0.00087    -0.00825     0.46608
  H      0.00035    -0.02741     1.55184
 Cl     -0.00544     3.61799    -2.46393
 Cl      2.51574     2.15790    -2.48971
 Cl     -0.00941     0.70513    -2.51539
  C      0.83266     2.15088    -1.95537
  H      0.83389     2.13172    -0.86961
