10

 Cl     -0.83897     1.45886    -0.04248
 Cl      1.68221    -0.00123    -0.06826
 Cl     -0.84295    -1.45400    -0.09393
  C     -0.00087    -0.00825     0.46608
  H      0.00035    -0.02741     1.55184
 Cl     -0.16611     3.13172     0.63039
 Cl      2.35507     1.67163     0.60461
 Cl     -0.17008     0.21886     0.57893
  C      0.67199     1.66461     1.13895
  H      0.67322     1.64545     2.22470
