10

Cl -1.82365764 1.21641785 -1.11634789
Cl 0.86875177 0.12730099 -1.12500416
Cl -1.40704654 -1.63544856 -0.73660952
C -0.75664561 -0.02287635 -0.46638707
H -0.69312217 0.12975363 0.61020333
Cl 0.71040800 2.34210021 2.03200299
Cl 3.37293792 1.30390517 1.50500997
Cl 1.34423409 -0.41716467 2.67398909
C 1.96533169 1.22572776 2.55836108
H 2.28266849 1.53052397 3.55561218
