10

Cl -0.56359349 0.60420064 -1.24640103
Cl 1.72007439 -1.18773234 -1.16770879
Cl -0.94432195 -2.20309590 -0.60397809
C 0.13845689 -0.82090424 -0.48871595
H 0.27747339 -0.59890387 0.56882022
Cl -0.08070485 3.71492975 0.92114867
Cl 2.00212854 1.75157499 1.42139216
Cl -0.64199582 1.38084507 2.55942223
C 0.57571960 2.55355579 2.06901265
H 0.88062330 3.10577010 2.95783792
