10

 Cl     -0.83897     1.45886    -0.04248
 Cl      1.68221    -0.00123    -0.06826
 Cl     -0.84295    -1.45400    -0.09393
  C     -0.00087    -0.00825     0.46608
  H      0.00035    -0.02741     1.55184
 Cl      0.33389     2.13172    -1.36961
 Cl      2.85507     0.67163    -1.39539
 Cl      0.32992    -0.78114    -1.42107
  C      1.17199     0.66461    -0.86105
  H      1.17322     0.64545     0.22470
