10

Cl -0.57578830 1.53823713 0.43211860
Cl 1.86854844 -0.01965564 0.22661413
Cl -0.71275525 -1.30861815 -0.11899930
C 0.17457448 -0.03067305 0.70366782
H 0.13456733 -0.23601226 1.77349137
Cl -2.01391253 2.07461103 -4.03716629
Cl 0.38644866 0.64557172 -3.24077236
Cl -2.04046138 -0.82662279 -3.85763320
C -1.37324903 0.66417528 -3.20243171
H -1.68076242 0.73057670 -2.15964905
