10

Cl -0.30863079 1.51495890 1.32409992
Cl 1.53371466 0.00228491 -0.33803039
Cl -0.95151087 -1.20931802 0.55564226
C 0.33811461 -0.07891560 0.95082046
H 0.84113967 -0.44999898 1.84386625
Cl -3.87573441 2.65266626 -1.69449535
Cl -1.43975766 1.23524564 -2.39631861
Cl -3.87560089 -0.24926258 -1.85087498
C -2.93228392 1.18546613 -1.46471362
H -2.66224041 1.12846336 -0.41075595
