10

 Cl     -0.83897     1.45886    -0.04248
 Cl      1.68221    -0.00123    -0.06826
 Cl     -0.84295    -1.45400    -0.09393
  C     -0.00087    -0.00825     0.46608
  H      0.00035    -0.02741     1.55184
 Cl     -2.16611     0.63172     1.13039
 Cl      0.35507    -0.82837     1.10461
 Cl     -2.17008    -2.28114     1.07893
  C     -1.32801    -0.83539     1.63895
  H     -1.32678    -0.85455     2.72470
