10

Cl -1.04351905 0.30970518 1.81195768
Cl 1.52462166 -0.84237097 1.10463223
Cl -0.85609049 -1.57683804 -0.39003098
C -0.21309792 -1.10758952 1.17943770
H -0.39283249 -1.93259571 1.86892094
Cl 0.98537401 4.37304822 -0.07981468
Cl 3.06754627 2.35174767 -0.21931281
Cl 0.48417581 1.86422454 -1.45518888
C 1.33507705 2.64936637 -0.12960318
H 0.97260516 2.21154227 0.79983196
