8

Cl -0.47259423 1.41266928 0.53054332
Cl 1.83056490 -0.26865074 -0.01817099
Cl -0.84666407 -1.39160807 -0.11926517
C 0.20356562 -0.20728993 0.64998925
H 0.27039967 -0.46039258 1.70809053
O -2.37326979 3.35629159 -1.50170986
H -2.67873682 2.45303690 -1.41536612
H -1.60108528 3.35916354 -2.06753097
