10

Cl -0.46238075 1.57595876 1.33073866
Cl 1.44765790 0.20319632 -0.37566535
Cl -1.22717547 -0.87558391 -0.02108661
C 0.09066895 0.01685710 0.72925314
H 0.43842714 -0.56330409 1.58391238
Cl -3.46133310 3.64179006 -1.83598311
Cl -1.12544274 2.05262016 -2.51057789
Cl -3.75154903 0.81425756 -2.44088860
C -2.71118252 2.05274534 -1.74689273
H -2.57048038 1.81305269 -0.69356990
