8

 Cl     -0.83897     1.45886    -0.04248
 Cl      1.68221    -0.00123    -0.06826
 Cl     -0.84295    -1.45400    -0.09393
  C     -0.00087    -0.00825     0.46608
  H      0.00035    -0.02741     1.55184
  O     -0.86116     3.32410     1.56642
  H     -1.31909     2.47874     1.47740
  H     -0.61353     3.51851     0.67657
