10

Cl -1.17665567 1.24740620 1.14460127
Cl 1.33496403 0.60899565 -0.16235903
Cl -0.91017844 -1.22492576 -0.35895806
C -0.08496796 -0.04116736 0.64836706
H 0.25370051 -0.55395430 1.54861778
Cl -1.54044795 4.55081359 -2.41816237
Cl 1.05817271 3.33214708 -2.87392121
Cl -1.32499797 1.67527463 -2.76455126
C -0.53753254 3.12828525 -2.15957206
H -0.40484672 3.00871502 -1.08482213
