8

Cl -1.67030674 0.53847103 -0.02230329
Cl 1.21884950 0.49844523 -0.28559025
Cl -0.23222243 -1.97865553 0.15793470
C -0.17855130 -0.24916430 0.47948317
H -0.07875073 -0.11416189 1.55674954
O -0.24778782 3.90861571 -0.12645032
H -0.51658520 3.02123949 -0.36590477
H 0.53753474 4.12843027 -0.62733877
