10

 Cl     -0.83897     1.45886    -0.04248
 Cl      1.68221    -0.00123    -0.06826
 Cl     -0.84295    -1.45400    -0.09393
  C     -0.00087    -0.00825     0.46608
  H      0.00035    -0.02741     1.55184
 Cl      0.83389     2.13172    -0.86961
 Cl      3.35507     0.67163    -0.89539
 Cl      0.82992    -0.78114    -0.92107
  C      1.67199     0.66461    -0.36105
  H      1.67322     0.64545     0.72470
