10

Cl -0.80339683 1.43813795 1.01975440
Cl 1.71536817 0.01590755 0.85099613
Cl -0.74481951 -1.44405156 1.31046045
C 0.12324130 0.05889625 1.59738054
H 0.25815384 0.17007079 2.67317834
Cl -1.29985070 1.01908820 -3.11748871
Cl 1.21395553 -0.43924132 -3.11423511
Cl -1.29763428 -1.87241453 -2.82572426
C -0.43108946 -0.37764875 -2.49208411
H -0.37006805 -0.26850458 -1.41140767
