10

Cl -0.31396574 0.53851829 -1.43244223
Cl 2.12353891 -0.82823535 -0.64099110
Cl -0.41269468 -2.24817761 -0.62046054
C 0.38648139 -0.69712174 -0.39310219
H 0.22440838 -0.39188967 0.63989903
Cl -1.80748981 3.40389808 0.61191376
Cl 0.49581647 2.24569741 1.95200984
Cl -2.06065316 0.87189890 2.01508938
C -1.25384978 2.43579971 1.97304035
H -1.51773198 2.96985198 2.88587369
