10

Cl -0.28742889 2.25716721 -0.83438625
Cl 2.11711525 0.63948624 -0.60489706
Cl -0.38346599 -0.58250887 -1.43549348
C 0.36446753 0.66888267 -0.44941876
H 0.12323436 0.45816979 0.59171962
Cl -2.37135319 -0.42635121 1.91532452
Cl 0.01046136 -2.07655821 2.09534866
Cl -2.34560202 -3.07306125 0.71578470
C -1.74862223 -2.06858361 2.03179522
H -2.11494617 -2.49640275 2.96505284
