10

Cl -1.90676430 1.37359750 -0.85229417
Cl 0.64461407 0.11383105 -1.43450704
Cl -1.62380730 -1.51071616 -0.62723062
C -0.82022637 0.04591056 -0.46126193
H -0.52929580 0.15578636 0.58257418
Cl 1.40542137 1.94863321 1.90744119
Cl 3.74125218 0.68337405 0.73022428
Cl 1.76275424 -0.92371613 2.12497177
C 2.57159840 0.63738992 2.04414319
H 3.11831353 0.77614963 2.97676916
