10

Cl -0.85889855 1.48742551 0.53277982
Cl 1.64669050 0.07099933 0.20101677
Cl -0.86241667 -1.37193545 0.06361959
C -0.00359332 -0.02612252 0.80189191
H 0.03889091 -0.20273594 1.87653730
Cl -1.00258358 2.12016680 -3.76424712
Cl 1.51285688 0.66718292 -3.84453198
Cl -1.00429716 -0.78426069 -3.85450633
C -0.15724847 0.65145731 -3.29034405
H -0.14219052 0.61941273 -2.20297590
