8

Cl -0.31474988 1.69618366 0.80678796
Cl 1.71757228 -0.18643321 -0.06199032
Cl -1.09495308 -0.80494886 -0.43225637
C 0.09265013 -0.00124814 0.58779755
H 0.06868647 -0.47849244 1.56746756
O -2.39546340 2.21593570 -2.19455666
H -2.09174125 1.53975127 -1.58824783
H -1.64982127 2.77247202 -2.41842189
