10

Cl -1.05785835 1.86282830 0.89129557
Cl 1.40755248 0.32474118 0.90898824
Cl -1.15290653 -1.03863294 1.02680336
C -0.25695457 0.40857599 1.47519893
H -0.23371925 0.45957669 2.56376108
Cl -0.42994040 0.25778285 -2.52795545
Cl 2.01494462 -1.17114690 -3.17280363
Cl -0.50341398 -2.61014770 -2.98202549
C 0.44843930 -1.25972712 -2.37631524
H 0.62771668 -1.43361035 -1.31611737
