10

Cl -0.32658731 1.11478848 -1.21992599
Cl 2.12628189 -0.40905278 -0.90168764
Cl -0.36224614 -1.77275098 -1.53276038
C 0.37832666 -0.41141192 -0.69863188
H 0.17016292 -0.52433769 0.36462047
Cl -2.85026629 2.43115580 1.34100021
Cl -0.55775269 1.20684573 2.64115451
Cl -2.62755936 -0.46279530 1.47851962
C -2.27517609 1.06148443 2.28473256
H -2.81132359 1.06631422 3.23380852
