10

Cl -0.58215208 1.76013586 0.70132994
Cl 1.68393583 0.17131406 -0.18656183
Cl -1.02370244 -0.81003857 -0.57375603
C 0.04610854 0.13405549 0.45649063
H 0.08568921 -0.35576050 1.42967385
Cl -2.32461155 3.54336399 -3.42589751
Cl 0.01592847 1.84505715 -3.15693666
Cl -2.54965057 0.67781590 -3.85634183
C -1.72983754 1.95338124 -2.96274978
H -1.95449786 1.81226539 -1.90601077
