10

Cl -0.98631452 0.98395248 1.02222352
Cl 1.41085858 -0.64307091 1.20737900
Cl -1.05275324 -1.79873942 0.18764059
C -0.34681147 -0.63214892 1.30024699
H -0.62650174 -0.92944759 2.31094763
Cl 0.76313021 3.28735996 -2.18942258
Cl 3.20402966 1.71280441 -2.07098834
Cl 0.64181097 0.39659596 -2.44335187
C 1.48302564 1.75588374 -1.70692535
H 1.37338592 1.66705030 -0.62691959
