10

Cl -1.09790092 0.67900425 1.53138280
Cl 1.42690377 -0.72472468 1.25007607
Cl -0.91540313 -1.64371647 -0.20431753
C -0.32607155 -0.88080624 1.26797786
H -0.59270597 -1.52756953 2.10375564
Cl 0.90322733 4.11203824 -0.88716745
Cl 3.19930815 2.33333568 -0.77340113
Cl 0.68684954 1.39355111 -1.88671966
C 1.44488498 2.44850814 -0.69938705
H 1.13476781 2.11061951 0.28863043
