10

 Cl     -0.83897     1.45886    -0.04248
 Cl      1.68221    -0.00123    -0.06826
 Cl     -0.84295    -1.45400    -0.09393
  C     -0.00087    -0.00825     0.46608
  H      0.00035    -0.02741     1.55184
 Cl     -0.66611     3.13172    -1.36961
 Cl      1.85507     1.67163    -1.39539
 Cl     -0.67008     0.21886    -1.42107
  C      0.17199     1.66461    -0.86105
  H      0.17322     1.64545     0.22470
