10

Cl -0.08364454 1.58785674 1.61454328
Cl 2.00476709 0.17417947 0.17051160
Cl -0.18848334 -1.30318658 1.37593427
C 0.85915365 0.10550082 1.50479429
H 1.43264121 0.00878163 2.42681197
Cl -3.31466088 2.13621282 -0.96436655
Cl -1.16807505 0.43994517 -1.93901150
Cl -3.77768305 -0.70450100 -1.37458555
C -2.60378218 0.52680595 -0.92482498
H -2.29637290 0.32864498 0.10102317
