10

Cl -0.93421438 -0.83385297 -0.13461978
Cl 1.94898040 -0.47401683 -0.04664930
Cl 0.75916989 -2.91788773 0.97429060
C 0.54851750 -1.18557327 0.74642885
H 0.46397296 -0.73244168 1.73431442
Cl -2.02276098 4.42440951 -0.27211347
Cl 0.34337658 2.84418257 -0.85835806
Cl -2.18958641 2.18931497 -2.12114964
C -1.40706689 2.82694822 -0.67924213
H -1.64652867 2.15915721 0.14792851
