10

 Cl     -0.83897     1.45886    -0.04248
 Cl      1.68221    -0.00123    -0.06826
 Cl     -0.84295    -1.45400    -0.09393
  C     -0.00087    -0.00825     0.46608
  H      0.00035    -0.02741     1.55184
 Cl     -1.50544     2.11799    -3.46393
 Cl      1.01574     0.65790    -3.48971
 Cl     -1.50941    -0.79487    -3.51539
  C     -0.66734     0.65088    -2.95537
  H     -0.66611     0.63172    -1.86961
