10

 Cl     -0.83897     1.45886    -0.04248
 Cl      1.68221    -0.00123    -0.06826
 Cl     -0.84295    -1.45400    -0.09393
  C     -0.00087    -0.00825     0.46608
  H      0.00035    -0.02741     1.55184
 Cl     -1.66611     2.63172    -1.36961
 Cl      0.85507     1.17163    -1.39539
 Cl     -1.67008    -0.28114    -1.42107
  C     -0.82801     1.16461    -0.86105
  H     -0.82678     1.14545     0.22470
