10

Cl -0.47188343 0.76614284 -1.18660552
Cl 2.07345913 -0.54455002 -0.69594642
Cl -0.36246072 -2.12028293 -0.88057643
C 0.33984427 -0.58110146 -0.39651883
H 0.18963997 -0.47465588 0.67707595
Cl -2.37509454 2.92769506 1.32999654
Cl 0.04509555 1.83129905 2.50658605
Cl -2.29555219 0.14734734 2.17189498
C -1.71411579 1.77852660 2.48744900
H -2.06507224 2.06981940 3.47747468
