10

Cl -0.55926168 1.68362793 0.61609375
Cl 1.82691054 0.10288337 0.11390143
Cl -0.80077316 -1.01695793 -0.42031645
C 0.13640345 0.06671243 0.60196686
H 0.09572833 -0.32029595 1.62013672
Cl -1.88587741 3.14369165 -3.52196629
Cl 0.42009490 1.41335179 -3.16723387
Cl -2.08602994 0.30905255 -4.13421221
C -1.33530750 1.52471500 -3.10706905
H -1.64467751 1.32480916 -2.08206090
