10

Cl -0.06070839 0.37319639 -0.01364437
Cl 2.28649432 -1.30723555 0.31177272
Cl -0.35524857 -2.50989101 0.18280725
C 0.57925232 -1.10727548 0.68953739
H 0.48879050 -1.02431169 1.77255202
Cl -2.41896082 5.79980808 -0.72211008
Cl -0.08116092 4.07508625 -0.69055083
Cl -2.74294560 2.91285072 -0.73480894
C -1.75588919 4.26129228 -0.18307877
H -1.77241366 4.25807000 0.90676362
