10

Cl -0.39726368 0.78726510 -1.19064773
Cl 2.03569113 -0.76771703 -0.87412174
Cl -0.55569845 -2.07860279 -0.74320050
C 0.34602190 -0.60457121 -0.41034159
H 0.31529861 -0.43647334 0.66536170
Cl -1.32632653 3.48964306 1.35323609
Cl 1.02088379 2.00383788 2.20426771
Cl -1.61880052 0.82964679 2.48639634
C -0.68430661 2.32120927 2.50203713
H -0.77163965 2.75600226 3.49784260
