10

Cl -1.17536992 1.07352275 1.28952564
Cl 1.52844832 0.34168547 0.52830275
Cl -0.72494844 -1.20788264 -0.45321105
C -0.09056932 -0.25099323 0.88056683
H -0.02188625 -0.90356224 1.75085004
Cl -0.38012596 4.86505157 -1.55746306
Cl 2.13467329 3.42668013 -1.78955155
Cl -0.36983400 2.07835237 -2.37665827
C 0.42286154 3.30755006 -1.39779256
H 0.34396074 3.00118576 -0.35532877
