8

 Cl     -0.83897     1.45886    -0.04248
 Cl      1.68221    -0.00123    -0.06826
 Cl     -0.84295    -1.45400    -0.09393
  C     -0.00087    -0.00825     0.46608
  H      0.00035    -0.02741     1.55184
  O      0.18091     2.97874    -0.52260
  H     -0.27703     2.13337    -0.61162
  H      0.42853     3.17314    -1.41245
