8

Cl -0.62436559 1.45300445 0.68476405
Cl 1.63733546 -0.10506737 -0.25575290
Cl -1.00891314 -1.29803478 -0.16047932
C 0.09449595 -0.15018617 0.58942557
H 0.28325673 -0.48892683 1.60804411
O -1.27227410 4.08998992 -1.39978603
H -1.58271833 3.24559038 -1.72751947
H -0.32082698 4.04295041 -1.30505601
