
 OpenBabel06082210043D

 34 36  0  0  0  0  0  0  0  0999 V2000
    0.1865    1.8101   -1.0214 C   0  0  0  0  0  0  0  0  0  0  0  0
   -0.1734    3.2082   -1.2279 C   0  0  0  0  0  0  0  0  0  0  0  0
   -1.0945    3.5379   -0.3673 N   0  0  0  0  0  0  0  0  0  0  0  0
   -1.4005    2.4024    0.4511 C   0  0  0  0  0  0  0  0  0  0  0  0
   -2.2348    2.3483    1.3813 O   0  0  0  0  0  0  0  0  0  0  0  0
   -0.5377    1.3304   -0.0288 C   0  0  0  0  0  0  0  0  0  0  0  0
   -0.4658   -0.0589    0.4803 C   0  0  1  0  0  0  0  0  0  0  0  0
   -1.7778   -0.7359    0.3296 C   0  0  0  0  0  0  0  0  0  0  0  0
   -2.1468   -1.2892   -0.8809 C   0  0  0  0  0  0  0  0  0  0  0  0
   -3.3701   -1.9264   -1.0405 C   0  0  0  0  0  0  0  0  0  0  0  0
   -4.2486   -2.0227    0.0077 C   0  0  0  0  0  0  0  0  0  0  0  0
   -3.8941   -1.4745    1.2241 C   0  0  0  0  0  0  0  0  0  0  0  0
   -2.6874   -0.8516    1.3633 C   0  0  0  0  0  0  0  0  0  0  0  0
    0.6071   -0.8104   -0.1109 N   0  0  0  0  0  0  0  0  0  0  0  0
    1.9781   -0.4646    0.0375 C   0  0  0  0  0  0  0  0  0  0  0  0
    2.9833   -1.1787   -0.6020 C   0  0  0  0  0  0  0  0  0  0  0  0
    4.3172   -0.8676   -0.4714 C   0  0  0  0  0  0  0  0  0  0  0  0
    4.7002    0.1981    0.3257 C   0  0  0  0  0  0  0  0  0  0  0  0
    3.7331    0.9247    0.9718 C   0  0  0  0  0  0  0  0  0  0  0  0
    2.3934    0.5855    0.8199 C   0  0  0  0  0  0  0  0  0  0  0  0
    0.9270    1.2614   -1.5919 H   0  0  0  0  0  0  0  0  0  0  0  0
    0.2266    3.8921   -1.9553 H   0  0  0  0  0  0  0  0  0  0  0  0
   -0.2539   -0.0602    1.5921 H   0  0  0  0  0  0  0  0  0  0  0  0
   -1.4882   -1.2389   -1.7371 H   0  0  0  0  0  0  0  0  0  0  0  0
   -3.6130   -2.3423   -2.0037 H   0  0  0  0  0  0  0  0  0  0  0  0
   -5.1869   -2.5179   -0.1353 H   0  0  0  0  0  0  0  0  0  0  0  0
   -4.6274   -1.5786    2.0230 H   0  0  0  0  0  0  0  0  0  0  0  0
   -2.4325   -0.4326    2.3178 H   0  0  0  0  0  0  0  0  0  0  0  0
    0.3378   -1.6524   -0.6757 H   0  0  0  0  0  0  0  0  0  0  0  0
    2.6806   -2.0053   -1.2198 H   0  0  0  0  0  0  0  0  0  0  0  0
    5.0959   -1.4339   -0.9770 H   0  0  0  0  0  0  0  0  0  0  0  0
    5.7404    0.4845    0.4615 H   0  0  0  0  0  0  0  0  0  0  0  0
    4.0351    1.7585    1.5952 H   0  0  0  0  0  0  0  0  0  0  0  0
    1.6913    1.2007    1.3610 H   0  0  0  0  0  0  0  0  0  0  0  0
  1  2  1  0  0  0  0
  1 21  1  0  0  0  0
  2  3  2  0  0  0  0
  2 22  1  0  0  0  0
  3  4  1  0  0  0  0
  4  5  2  0  0  0  0
  4  6  1  0  0  0  0
  6  7  1  0  0  0  0
  6  1  2  0  0  0  0
  7  8  1  0  0  0  0
  7 14  1  0  0  0  0
  7 23  1  1  0  0  0
  8  9  2  0  0  0  0
  9 10  1  0  0  0  0
  9 24  1  0  0  0  0
 10 11  2  0  0  0  0
 10 25  1  0  0  0  0
 11 12  1  0  0  0  0
 11 26  1  0  0  0  0
 12 13  2  0  0  0  0
 12 27  1  0  0  0  0
 13  8  1  0  0  0  0
 13 28  1  0  0  0  0
 14 15  1  0  0  0  0
 14 29  1  0  0  0  0
 15 16  2  0  0  0  0
 16 17  1  0  0  0  0
 16 30  1  0  0  0  0
 17 18  2  0  0  0  0
 17 31  1  0  0  0  0
 18 19  1  0  0  0  0
 18 32  1  0  0  0  0
 19 20  2  0  0  0  0
 19 33  1  0  0  0  0
 20 15  1  0  0  0  0
 20 34  1  0  0  0  0
M  END
$$$$
