34
0 1 C17H14N2O
C                     1.954275461910    -0.439154763716     0.015073120110
N                     0.685175461910    -0.673654763716     0.570173120110
C                    -0.591424538090    -0.147454763716     0.382173120110
C                    -1.653024538090    -0.509154763716     1.145073120110
H                     0.715575461910    -1.364454763716     1.328673120110
C                    -0.821424538090     0.782145236284    -0.740526879890
C                    -3.091524538090    -0.168854763716     1.122373120110
N                    -2.709324538090    -1.580354763716     2.895773120110
C                    -1.465424538090    -1.458054763716     2.309673120110
C                    -3.664324538090    -0.840054763716     2.211073120110
C                    -0.946724538090     2.161945236284    -0.509726879890
C                    -0.938524538090     0.291345236284    -2.048426879890
C                    -1.192124538090     3.033345236284    -1.572226879890
C                    -1.183324538090     1.166245236284    -3.108126879890
C                    -1.312324538090     2.534345236284    -2.868926879890
C                     2.928875461910    -1.433054763716     0.180373120110
C                     2.317775461910     0.668445236284    -0.742726879890
C                     4.214475461910    -1.316654763716    -0.372326879890
C                     3.603575461910     0.789845236284    -1.299626879890
C                     4.583775461910    -0.197754763716    -1.122226879890
H                    -2.878624538090    -2.164254763716     3.700873120110
O                    -0.434024538090    -2.005654763716     2.657573120110
H                    -0.856724538090     2.558645236284     0.498973120110
H                    -0.838524538090    -0.774154763716    -2.242326879890
H                    -1.299624538090     4.099245236284    -1.388126879890
H                    -1.280324538090     0.779545236284    -4.119326879890
H                    -1.514624538090     3.212445236284    -3.694526879890
H                     2.691675461910    -2.336454763716     0.740273120110
H                     1.632275461910     1.490945236284    -0.902326879890
H                     4.887675461910    -2.154854763716    -0.222326879890
H                     3.806775461910     1.705245236284    -1.847426879890
H                    -3.575324538090     0.439145236284     0.443173120110
H                    -4.662224538090    -0.790854763716     2.469473120110
H                     5.529075461910    -0.102454763716    -1.525026879890
