
 OpenBabel11102110373D

 32 34  0  0  0  0  0  0  0  0999 V2000
    0.7684   -0.3901    0.0751 C   0  0  0  0  0  0  0  0  0  0  0  0
    0.8187    0.7967    0.7396 C   0  0  0  0  0  0  0  0  0  0  0  0
    2.0150    1.4857    1.0262 N   0  0  0  0  0  0  0  0  0  0  0  0
    3.3276    1.0451    0.5570 C   0  0  0  0  0  0  0  0  0  0  0  0
    2.0467    2.3590    1.5950 H   0  0  0  0  0  0  0  0  0  0  0  0
   -0.3808    1.3773    1.1515 C   0  0  0  0  0  0  0  0  0  0  0  0
    4.1030    0.5446    1.4904 C   0  0  0  0  0  0  0  0  0  0  0  0
    4.7596   -0.2837    3.5799 N   0  0  0  0  0  0  0  0  0  0  0  0
    5.4582    0.0130    1.4574 C   0  0  0  0  0  0  0  0  0  0  0  0
    3.6845    0.3297    2.9027 C   0  0  0  0  0  0  0  0  0  0  0  0
    5.8399   -0.4763    2.6974 C   0  0  0  0  0  0  0  0  0  0  0  0
    3.5334    1.1624   -0.8633 C   0  0  0  0  0  0  0  0  0  0  0  0
    3.8728    0.1587   -1.7382 C   0  0  0  0  0  0  0  0  0  0  0  0
    3.3553    2.4401   -1.3944 C   0  0  0  0  0  0  0  0  0  0  0  0
    4.0372    0.3727   -3.0889 C   0  0  0  0  0  0  0  0  0  0  0  0
    3.5217    2.6313   -2.7274 C   0  0  0  0  0  0  0  0  0  0  0  0
    3.8590    1.6349   -3.6015 C   0  0  0  0  0  0  0  0  0  0  0  0
   -0.4525   -0.9913   -0.1781 C   0  0  0  0  0  0  0  0  0  0  0  0
   -1.5812    0.7589    0.8881 C   0  0  0  0  0  0  0  0  0  0  0  0
   -1.6729   -0.4423    0.2171 C   0  0  0  0  0  0  0  0  0  0  0  0
    1.6947   -0.8811   -0.2560 H   0  0  0  0  0  0  0  0  0  0  0  0
   -0.3362    2.3125    1.6730 H   0  0  0  0  0  0  0  0  0  0  0  0
    4.7610   -0.5554    4.5848 H   0  0  0  0  0  0  0  0  0  0  0  0
    2.5800    0.6382    3.3965 O   0  0  0  0  0  0  0  0  0  0  0  0
    4.0156   -0.8353   -1.3516 H   0  0  0  0  0  0  0  0  0  0  0  0
    3.0898    3.2771   -0.7629 H   0  0  0  0  0  0  0  0  0  0  0  0
    4.3051   -0.4395   -3.7540 H   0  0  0  0  0  0  0  0  0  0  0  0
    3.3817    3.6237   -3.1393 H   0  0  0  0  0  0  0  0  0  0  0  0
    3.9846    1.8164   -4.6657 H   0  0  0  0  0  0  0  0  0  0  0  0
   -0.4960   -1.9392   -0.7089 H   0  0  0  0  0  0  0  0  0  0  0  0
   -2.4841    1.2641    1.2460 H   0  0  0  0  0  0  0  0  0  0  0  0
   -2.8888   -1.1054   -0.0710 N   0  0  0  0  0  0  0  0  0  0  0  0
  1 18  1  0  0  0  0
  1 21  1  0  0  0  0
  2  1  2  0  0  0  0
  2  6  1  0  0  0  0
  3  4  1  0  0  0  0
  3  2  1  0  0  0  0
  3  5  1  0  0  0  0
  4 12  1  0  0  0  0
  6 19  2  0  0  0  0
  6 22  1  0  0  0  0
  7  9  1  0  0  0  0
  7  4  2  0  0  0  0
  7 10  1  0  0  0  0
  8 10  1  0  0  0  0
  8 11  1  0  0  0  0
  8 23  1  0  0  0  0
  9 11  2  0  0  0  0
 10 24  2  0  0  0  0
 12 13  2  0  0  0  0
 12 14  1  0  0  0  0
 13 15  1  0  0  0  0
 13 25  1  0  0  0  0
 14 16  2  0  0  0  0
 14 26  1  0  0  0  0
 15 17  2  0  0  0  0
 15 27  1  0  0  0  0
 16 17  1  0  0  0  0
 16 28  1  0  0  0  0
 17 29  1  0  0  0  0
 18 20  2  0  0  0  0
 18 30  1  0  0  0  0
 19 20  1  0  0  0  0
 19 31  1  0  0  0  0
 32 20  1  0  0  0  0
M  END
