
 OpenBabel06082210043D

 34 36  0  0  0  0  0  0  0  0999 V2000
   -3.3444   -0.1700    0.7757 C   0  0  0  0  0  0  0  0  0  0  0  0
   -2.0678   -0.6962    0.9637 N   0  0  0  0  0  0  0  0  0  0  0  0
   -0.7987   -0.4617    0.4086 C   0  0  0  0  0  0  0  0  0  0  0  0
    0.1759   -1.4556    0.5739 C   0  0  0  0  0  0  0  0  0  0  0  0
   -2.0374   -1.3870    1.7222 H   0  0  0  0  0  0  0  0  0  0  0  0
   -0.4352    0.6459   -0.3492 C   0  0  0  0  0  0  0  0  0  0  0  0
   -4.4060   -0.5317    1.5386 C   0  0  0  0  0  0  0  0  0  0  0  0
   -5.4623   -1.6029    3.2893 N   0  0  0  0  0  0  0  0  0  0  0  0
   -5.8445   -0.1914    1.5159 C   0  0  0  0  0  0  0  0  0  0  0  0
   -4.2184   -1.4806    2.7032 C   0  0  0  0  0  0  0  0  0  0  0  0
   -6.4173   -0.8626    2.6046 C   0  0  0  0  0  0  0  0  0  0  0  0
   -3.5744    0.7596   -0.3470 C   0  0  0  0  0  0  0  0  0  0  0  0
   -3.6997    2.1394   -0.1162 C   0  0  0  0  0  0  0  0  0  0  0  0
   -3.6915    0.2688   -1.6549 C   0  0  0  0  0  0  0  0  0  0  0  0
   -3.9451    3.0108   -1.1787 C   0  0  0  0  0  0  0  0  0  0  0  0
   -3.9363    1.1437   -2.7146 C   0  0  0  0  0  0  0  0  0  0  0  0
   -4.0653    2.5118   -2.4754 C   0  0  0  0  0  0  0  0  0  0  0  0
    1.4615   -1.3392    0.0212 C   0  0  0  0  0  0  0  0  0  0  0  0
    0.8506    0.7673   -0.9061 C   0  0  0  0  0  0  0  0  0  0  0  0
    1.8308   -0.2203   -0.7287 C   0  0  0  0  0  0  0  0  0  0  0  0
   -0.0613   -2.3590    1.1338 H   0  0  0  0  0  0  0  0  0  0  0  0
   -1.1207    1.4684   -0.5088 H   0  0  0  0  0  0  0  0  0  0  0  0
   -5.6316   -2.1868    4.0944 H   0  0  0  0  0  0  0  0  0  0  0  0
   -3.1870   -2.0282    3.0511 O   0  0  0  0  0  0  0  0  0  0  0  0
   -3.6097    2.5361    0.8925 H   0  0  0  0  0  0  0  0  0  0  0  0
   -3.5915   -0.7967   -1.8488 H   0  0  0  0  0  0  0  0  0  0  0  0
   -4.0526    4.0767   -0.9946 H   0  0  0  0  0  0  0  0  0  0  0  0
   -4.0333    0.7570   -3.7258 H   0  0  0  0  0  0  0  0  0  0  0  0
   -4.2676    3.1899   -3.3010 H   0  0  0  0  0  0  0  0  0  0  0  0
    2.1347   -2.1774    0.1712 H   0  0  0  0  0  0  0  0  0  0  0  0
    1.0538    1.6827   -1.4539 H   0  0  0  0  0  0  0  0  0  0  0  0
   -6.3283    0.4166    0.8367 H   0  0  0  0  0  0  0  0  0  0  0  0
   -7.4152   -0.8134    2.8630 H   0  0  0  0  0  0  0  0  0  0  0  0
    2.7761   -0.1250   -1.1315 H   0  0  0  0  0  0  0  0  0  0  0  0
  1 12  1  0  0  0  0
  2  1  1  0  0  0  0
  2  3  1  0  0  0  0
  2  5  1  0  0  0  0
  3  4  2  0  0  0  0
  3  6  1  0  0  0  0
  4 18  1  0  0  0  0
  4 21  1  0  0  0  0
  6 19  2  0  0  0  0
  6 22  1  0  0  0  0
  7  9  1  0  0  0  0
  7  1  2  0  0  0  0
  7 10  1  0  0  0  0
  8 10  1  0  0  0  0
  8 11  1  0  0  0  0
  8 23  1  0  0  0  0
  9 11  2  0  0  0  0
  9 32  1  0  0  0  0
 10 24  2  0  0  0  0
 11 33  1  0  0  0  0
 12 13  2  0  0  0  0
 12 14  1  0  0  0  0
 13 15  1  0  0  0  0
 13 25  1  0  0  0  0
 14 16  2  0  0  0  0
 14 26  1  0  0  0  0
 15 17  2  0  0  0  0
 15 27  1  0  0  0  0
 16 17  1  0  0  0  0
 16 28  1  0  0  0  0
 17 29  1  0  0  0  0
 18 20  2  0  0  0  0
 18 30  1  0  0  0  0
 19 20  1  0  0  0  0
 19 31  1  0  0  0  0
 20 34  1  0  0  0  0
M  END
$$$$
