
 OpenBabel11102110373D

 13 12  0  0  0  0  0  0  0  0999 V2000
   -6.5381   -0.4815   -0.3951 N   0  0  0  0  0  0  0  0  0  0  0  0
   -5.3996   -1.3033   -0.4136 C   0  0  0  0  0  0  0  0  0  0  0  0
   -6.9528    0.0891    0.8243 C   0  0  0  0  0  0  0  0  0  0  0  0
   -7.0620    0.0209   -1.6013 C   0  0  0  0  0  0  0  0  0  0  0  0
   -5.5441   -2.1373    0.3081 H   0  0  0  0  0  0  0  0  0  0  0  0
   -5.2407   -1.7424   -1.4381 H   0  0  0  0  0  0  0  0  0  0  0  0
   -6.3702    1.0167    1.0634 H   0  0  0  0  0  0  0  0  0  0  0  0
   -6.7088   -0.6322    1.6504 H   0  0  0  0  0  0  0  0  0  0  0  0
   -7.1723   -0.7930   -2.3411 H   0  0  0  0  0  0  0  0  0  0  0  0
   -6.3811    0.8234   -2.0109 H   0  0  0  0  0  0  0  0  0  0  0  0
   -4.5476   -0.7124   -0.1494 H   0  0  0  0  0  0  0  0  0  0  0  0
   -7.9961    0.3114    0.7404 H   0  0  0  0  0  0  0  0  0  0  0  0
   -8.0264    0.4424   -1.4083 H   0  0  0  0  0  0  0  0  0  0  0  0
  1  2  1  0  0  0  0
  1  3  1  0  0  0  0
  1  4  1  0  0  0  0
  2  5  1  0  0  0  0
  2  6  1  0  0  0  0
  2 11  1  0  0  0  0
  3  7  1  0  0  0  0
  3  8  1  0  0  0  0
  3 12  1  0  0  0  0
  4  9  1  0  0  0  0
  4 10  1  0  0  0  0
  4 13  1  0  0  0  0
M  END
$$$$
