
 OpenBabel11102110373D

 19 19  0  0  0  0  0  0  0  0999 V2000
   -2.8888   -1.1054   -0.0710 N   0  0  0  0  0  0  0  0  0  0  0  0
   -1.6729   -0.4423    0.2171 C   0  0  0  0  0  0  0  0  0  0  0  0
    0.8187    0.7967    0.7396 C   0  0  0  0  0  0  0  0  0  0  0  0
    0.7684   -0.3901    0.0751 C   0  0  0  0  0  0  0  0  0  0  0  0
   -0.3808    1.3773    1.1515 C   0  0  0  0  0  0  0  0  0  0  0  0
   -0.4525   -0.9913   -0.1781 C   0  0  0  0  0  0  0  0  0  0  0  0
   -1.5812    0.7589    0.8881 C   0  0  0  0  0  0  0  0  0  0  0  0
   -4.1555   -0.5195   -0.1345 C   0  0  0  0  0  0  0  0  0  0  0  0
   -2.7909   -2.5570   -0.3312 C   0  0  0  0  0  0  0  0  0  0  0  0
    1.6947   -0.8811   -0.2560 H   0  0  0  0  0  0  0  0  0  0  0  0
   -0.3362    2.3125    1.6730 H   0  0  0  0  0  0  0  0  0  0  0  0
   -0.4960   -1.9392   -0.7089 H   0  0  0  0  0  0  0  0  0  0  0  0
   -2.4841    1.2641    1.2460 H   0  0  0  0  0  0  0  0  0  0  0  0
   -4.2960    0.7099    0.0469 O   0  0  0  0  0  0  0  0  0  0  0  0
   -2.1724   -3.0439    0.4245 H   0  0  0  0  0  0  0  0  0  0  0  0
   -2.3340   -2.6537   -1.3286 H   0  0  0  0  0  0  0  0  0  0  0  0
   -3.8072   -3.0369   -0.2737 H   0  0  0  0  0  0  0  0  0  0  0  0
    1.7223    1.2558    0.9339 H   0  0  0  0  0  0  0  0  0  0  0  0
   -4.9815   -1.1056   -0.3326 H   0  0  0  0  0  0  0  0  0  0  0  0
  1  2  1  0  0  0  0
  1  8  1  0  0  0  0
  1  9  1  0  0  0  0
  3  4  2  0  0  0  0
  3  5  1  0  0  0  0
  3 18  1  0  0  0  0
  4  6  1  0  0  0  0
  4 10  1  0  0  0  0
  5  7  2  0  0  0  0
  5 11  1  0  0  0  0
  6  2  2  0  0  0  0
  6 12  1  0  0  0  0
  7  2  1  0  0  0  0
  7 13  1  0  0  0  0
  8 14  2  0  0  0  0
  8 19  1  0  0  0  0
  9 15  1  0  0  0  0
  9 16  1  0  0  0  0
  9 17  1  0  0  0  0
M  END
$$$$
