23

C 1.603269546009 -0.555892884129 -1.298644387136
N 0.636959748674 -0.279860068483 -0.222812078262
C -0.716393801669 -0.547134594047 -0.710963739625
C -1.906293812108 -0.060003413260 0.103995131634
C 0.899415078161 1.034148763619 0.420804188482
H -0.818900374018 -1.629636226500 -0.835523560111
H -0.871444950578 -0.108783777284 -1.716933946808
N -3.105715086407 -0.486483289698 -0.400687871242
O -1.869669879185 0.695532033721 1.087360982484
C 3.039371061860 -0.695050096817 -0.807369742235
H 1.310290278341 -1.496724389448 -1.773367133550
H 1.545662524073 0.225770443137 -2.078918749120
C 1.541547078232 0.872136463185 1.794794844380
H 1.550074837005 1.628667907932 -0.234955875149
H -0.027601824745 1.584202100473 0.537432645671
H 3.093676667461 -1.448443184929 -0.021337242916
H 3.689224169894 -0.999183815259 -1.630493608244
H 1.758935786222 1.848376846078 2.236321143102
H 0.851840639145 0.342197147272 2.451462769525
H -3.181459766727 -1.280032464615 -1.009387405423
H -3.936476046201 -0.175756845408 0.071062513128
H 3.426773624700 0.243241474664 -0.409407705607
H 2.468821121505 0.301390107574 1.742227535491
