23

C 1.13059308 -0.64626754 -0.65541228
N 0.44581498 0.38504374 0.18903122
C -1.01393089 0.48676627 -0.08233481
C -1.87118325 -0.80630742 -0.22690007
C 1.09971027 1.73047068 0.17367035
H -1.17055457 1.07942043 -1.00264985
H -1.47984810 1.08039891 0.72447789
N -3.16589840 -0.55442783 -0.60700756
O -1.49570926 -1.94323950 0.06331131
C 2.55375935 -0.97287362 -0.15988335
H 0.54715564 -1.57638023 -0.61614256
H 1.13183776 -0.32208044 -1.70990597
C 1.86428604 1.99184525 1.48160315
H 1.76973007 1.81399609 -0.69803340
H 0.34790927 2.52413352 0.02769721
H 2.54293791 -1.25362422 0.89479639
H 2.97056070 -1.81015540 -0.72230672
H 2.33207296 2.97738491 1.46415216
H 1.19044831 1.95435929 2.33919657
H -3.39877988 0.31309708 -1.05899086
H -3.76744594 -1.34838856 -0.74957577
H 3.22807806 -0.12537225 -0.28775585
H 2.64944489 1.25198183 1.63883882
