23

C 1.38167504 -0.17361639 -1.38538172
N 0.63991294 -0.33088569 -0.10661775
C -0.75815527 -0.73058009 -0.31891286
C -1.72827872 0.38052281 -0.81240409
C 0.79231922 0.75585079 0.90406000
H -1.15617793 -1.14533152 0.62453774
H -0.81305528 -1.57758922 -1.02466318
N -3.03835041 -0.02311113 -0.86425287
O -1.37910205 1.50575750 -1.17343950
C 2.90874827 -0.17788471 -1.18528238
H 1.10444536 -0.99661396 -2.06549613
H 1.04566312 0.75832379 -1.87199220
C 1.71052661 0.30647869 2.05209929
H 1.17594851 1.66262116 0.40870319
H -0.18941552 1.05436536 1.30692970
H 3.22766381 -1.07359403 -0.64968479
H 3.41985440 -0.16383990 -2.14929361
H 1.83923017 1.10972333 2.77920875
H 1.29006597 -0.55541917 2.57272038
H -3.34151972 -0.81377072 -0.32172056
H -3.72058286 0.66867588 -1.12671920
H 3.24131449 0.69724162 -0.62550753
H 2.69868087 0.02798862 1.68478134
