23

C 1.25628183 -0.72509105 -0.93269143
N 0.51991232 0.14258131 0.04362415
C -0.93772885 0.23320711 -0.24244586
C -1.73891688 -1.05601213 -0.59414751
C 1.12363821 1.49712277 0.24362218
H -1.10097740 0.94897825 -1.06943805
H -1.44050566 0.68356220 0.63221178
N -3.03598536 -0.80054666 -0.96361707
O -1.32331947 -2.20828125 -0.46049266
C 2.68283450 -1.07389600 -0.46315267
H 0.70797873 -1.67028537 -1.04671670
H 1.26186490 -0.24451262 -1.92577682
C 1.85916296 1.58382020 1.59097659
H 1.80177418 1.73548029 -0.59257827
H 0.34426641 2.27681276 0.20488417
H 2.66563891 -1.51746247 0.53398722
H 3.13969195 -1.79780097 -1.14012335
H 2.30300602 2.57133392 1.72592092
H 1.17252700 1.40789933 2.42069649
H -3.29635783 0.11431888 -1.28965284
H -3.60010764 -1.58786430 -1.23650352
H 3.32701915 -0.19436011 -0.44217325
H 2.65970702 0.84630394 1.65525749
