30

N -0.272552034317 0.283397765068 -0.738619717919
C 0.850912553875 -0.268578901551 -0.144615435914
C 2.159972761180 -0.041954225017 -0.899560394140
N 3.298861800062 -0.624463820021 -0.223365115286
O 0.794414288688 -0.907283259366 0.903383392461
H 2.070321873304 -0.516794514462 -1.885002956064
H 2.297288855864 1.042982778353 -1.088539125863
C -1.520788806943 0.218381291896 -0.053552147431
C -4.007744760531 0.101823463628 1.217638657249
C -3.251715041031 -1.057798381716 1.039437113114
C -3.513329670153 1.321885954639 0.759485099193
C -2.016281395530 -1.008792372318 0.398979011992
C -2.270164577243 1.384446622022 0.131581407624
C -0.197358434774 1.136851988240 -1.920471313454
C 4.445297529129 -0.641186870606 -1.119726533229
C 3.623311348309 0.111135951145 0.992418192736
H -3.630918499626 -2.013538460456 1.391994031591
H -4.089997227307 2.232794613656 0.898785571352
H -1.430163733463 -1.909024444572 0.255569698761
H -1.876446785434 2.342364775810 -0.197981686976
H -1.191082341154 1.179589009515 -2.367024087592
H 0.129962848522 2.157648973182 -1.690032568143
H 0.483756953280 0.710498029335 -2.657599098871
H 4.213120799301 -1.238972257394 -2.005434236723
H 4.752989809223 0.368401287167 -1.449706731494
H 3.879168605261 1.167327266357 0.785483416621
H 2.778259288826 0.068639364571 1.677051599236
H -4.973960853675 0.054577699894 1.712576414935
H 5.291579015103 -1.104356957780 -0.606444163083
H 4.483364384884 -0.361533290325 1.473163120969
