
 OpenBabel06082210043D

 30 30  0  0  0  0  0  0  0  0999 V2000
    3.1436   -0.0797   -1.3184 N   0  0  0  0  0  0  0  0  0  0  0  0
    4.2736   -0.7238   -0.7723 C   0  0  0  0  0  0  0  0  0  0  0  0
    5.6327   -0.4154   -1.4574 C   0  0  0  0  0  0  0  0  0  0  0  0
    6.7798   -0.9764   -0.6993 N   0  0  0  0  0  0  0  0  0  0  0  0
    4.2484   -1.4671    0.2131 O   0  0  0  0  0  0  0  0  0  0  0  0
    5.5936   -0.8941   -2.4430 H   0  0  0  0  0  0  0  0  0  0  0  0
    5.7613    0.6657   -1.5772 H   0  0  0  0  0  0  0  0  0  0  0  0
    1.8308   -0.2203   -0.7287 C   0  0  0  0  0  0  0  0  0  0  0  0
   -0.7987   -0.4617    0.4086 C   0  0  0  0  0  0  0  0  0  0  0  0
    0.1759   -1.4556    0.5739 C   0  0  0  0  0  0  0  0  0  0  0  0
   -0.4352    0.6459   -0.3492 C   0  0  0  0  0  0  0  0  0  0  0  0
    1.4615   -1.3392    0.0212 C   0  0  0  0  0  0  0  0  0  0  0  0
    0.8506    0.7673   -0.9061 C   0  0  0  0  0  0  0  0  0  0  0  0
    3.2561    0.8416   -2.4531 C   0  0  0  0  0  0  0  0  0  0  0  0
    8.0057   -1.0303   -1.5071 C   0  0  0  0  0  0  0  0  0  0  0  0
    7.0108   -0.2646    0.5722 C   0  0  0  0  0  0  0  0  0  0  0  0
   -0.0613   -2.3590    1.1338 H   0  0  0  0  0  0  0  0  0  0  0  0
   -1.1207    1.4684   -0.5088 H   0  0  0  0  0  0  0  0  0  0  0  0
    2.1347   -2.1774    0.1712 H   0  0  0  0  0  0  0  0  0  0  0  0
    1.0538    1.6827   -1.4539 H   0  0  0  0  0  0  0  0  0  0  0  0
    2.3620    0.7934   -3.0831 H   0  0  0  0  0  0  0  0  0  0  0  0
    3.4063    1.8562   -2.0716 H   0  0  0  0  0  0  0  0  0  0  0  0
    4.0956    0.5836   -3.1014 H   0  0  0  0  0  0  0  0  0  0  0  0
    7.8246   -1.6022   -2.4248 H   0  0  0  0  0  0  0  0  0  0  0  0
    8.3150   -0.0201   -1.8048 H   0  0  0  0  0  0  0  0  0  0  0  0
    7.2920    0.7786    0.3770 H   0  0  0  0  0  0  0  0  0  0  0  0
    6.1083   -0.2401    1.1905 H   0  0  0  0  0  0  0  0  0  0  0  0
   -1.7378   -0.5477    0.8278 H   0  0  0  0  0  0  0  0  0  0  0  0
    8.7675   -1.4923   -0.9145 H   0  0  0  0  0  0  0  0  0  0  0  0
    7.7902   -0.7913    1.0822 H   0  0  0  0  0  0  0  0  0  0  0  0
  1  8  1  0  0  0  0
  1  2  1  0  0  0  0
  1 14  1  0  0  0  0
  2  3  1  0  0  0  0
  2  5  2  0  0  0  0
  3  6  1  0  0  0  0
  3  7  1  0  0  0  0
  4  3  1  0  0  0  0
  4 15  1  0  0  0  0
  4 16  1  0  0  0  0
  9 10  2  0  0  0  0
  9 11  1  0  0  0  0
  9 28  1  0  0  0  0
 10 12  1  0  0  0  0
 10 17  1  0  0  0  0
 11 13  2  0  0  0  0
 11 18  1  0  0  0  0
 12  8  2  0  0  0  0
 12 19  1  0  0  0  0
 13  8  1  0  0  0  0
 13 20  1  0  0  0  0
 14 21  1  0  0  0  0
 14 22  1  0  0  0  0
 14 23  1  0  0  0  0
 15 24  1  0  0  0  0
 15 25  1  0  0  0  0
 15 29  1  0  0  0  0
 16 26  1  0  0  0  0
 16 27  1  0  0  0  0
 16 30  1  0  0  0  0
M  END
$$$$
