
     RDKit          3D

 23 22  0  0  0  0  0  0  0  0999 V2000
    3.3348    0.0594    0.2382 N   0  0  0  0  0  0  0  0  0  0  0  0
    2.2685   -0.2936   -0.3889 C   0  0  0  0  0  0  0  0  0  0  0  0
    2.2786   -1.4776   -1.0874 O   0  0  0  0  0  0  0  0  0  0  0  0
    1.0653    0.5530   -0.3550 C   0  0  0  0  0  0  0  0  0  0  0  0
   -0.0724    0.0065    0.2493 N   0  0  0  0  0  0  0  0  0  0  0  0
   -0.7365   -1.0562   -0.3604 C   0  0  0  0  0  0  0  0  0  0  0  0
   -1.9372   -1.5969    0.3120 C   0  0  0  0  0  0  0  0  0  0  0  0
   -0.6979    0.8827    1.1287 C   0  0  0  0  0  0  0  0  0  0  0  0
   -1.3046    2.0180    0.2926 C   0  0  0  0  0  0  0  0  0  0  0  0
    4.1869   -0.5217    0.2256 H   0  0  0  0  0  0  0  0  0  0  0  0
    3.1307   -1.7718   -1.5961 H   0  0  0  0  0  0  0  0  0  0  0  0
    1.3042    1.5410    0.1234 H   0  0  0  0  0  0  0  0  0  0  0  0
    0.7698    0.8540   -1.4101 H   0  0  0  0  0  0  0  0  0  0  0  0
   -0.9928   -0.7684   -1.4015 H   0  0  0  0  0  0  0  0  0  0  0  0
   -0.0062   -1.9080   -0.4699 H   0  0  0  0  0  0  0  0  0  0  0  0
   -2.6616   -0.8777    0.6888 H   0  0  0  0  0  0  0  0  0  0  0  0
   -1.6303   -2.2080    1.2108 H   0  0  0  0  0  0  0  0  0  0  0  0
   -2.4872   -2.2961   -0.3496 H   0  0  0  0  0  0  0  0  0  0  0  0
   -1.4791    0.5247    1.7796 H   0  0  0  0  0  0  0  0  0  0  0  0
    0.0796    1.3888    1.7682 H   0  0  0  0  0  0  0  0  0  0  0  0
   -0.5228    2.7505    0.0019 H   0  0  0  0  0  0  0  0  0  0  0  0
   -1.9992    2.5612    0.9790 H   0  0  0  0  0  0  0  0  0  0  0  0
   -1.8907    1.6362   -0.5369 H   0  0  0  0  0  0  0  0  0  0  0  0
  1  2  2  3
  2  3  1  0
  2  4  1  0
  4  5  1  0
  5  6  1  0
  6  7  1  0
  5  8  1  0
  8  9  1  0
  1 10  1  0
  3 11  1  0
  4 12  1  0
  4 13  1  0
  6 14  1  0
  6 15  1  0
  7 16  1  0
  7 17  1  0
  7 18  1  0
  8 19  1  0
  8 20  1  0
  9 21  1  0
  9 22  1  0
  9 23  1  0
M  END
