36

C -0.71404551 1.49879858 -0.19508958
C -0.76220428 0.24204914 0.36789213
N 0.30607847 -0.12189414 1.22844286
C 1.64935413 -0.43726740 0.82680360
H -0.01581645 -0.75858467 1.95775910
C -0.79540716 2.77435921 0.49389838
N -0.58345468 3.18796069 -1.71732781
C -0.58151520 1.80120132 -1.66290749
C -0.71075820 3.74675155 -0.45285546
C -1.89237337 -0.71656307 0.21662816
C -3.21122859 -0.26944795 0.49088208
C -1.70019682 -2.06955541 -0.15559100
C -4.29872892 -1.14520316 0.38826629
C -2.79013970 -2.94394360 -0.25618816
C -4.09596614 -2.48801682 0.01356674
C 1.98001498 -1.46950691 -0.08170835
C 2.70337337 0.33090087 1.37635072
C 3.31694823 -1.73218159 -0.41343411
C 4.03781717 0.06637487 1.04122048
C 4.37658861 -0.97783275 0.14664989
H -0.49956146 3.68218358 -2.59399587
O -0.49191183 1.07995991 -2.65725324
H -3.37961738 0.76709998 0.78795965
H -0.69966842 -2.44064755 -0.36594194
H -5.30403259 -0.78026939 0.60343809
H -2.62090449 -3.98295574 -0.54310035
H -4.94402136 -3.17015957 -0.06621876
H 1.20100018 -2.06989151 -0.54770327
H 2.47960638 1.14404530 2.07013833
H 3.53149597 -2.53540438 -1.12191380
H 4.82112425 0.68451860 1.48524783
N 5.73509782 -1.24405611 -0.19717968
H -0.90004466 2.91737085 1.55957303
H -0.72980238 4.82270312 -0.34530584
H 5.90860846 -2.21615194 -0.45434998
H 6.40006057 -0.96810494 0.52598232
