36

C -0.68247495 1.55685336 0.23562370
C -0.79919691 0.18313002 0.38127936
N 0.14316381 -0.49328068 1.20249285
C 1.52092036 -0.73745776 0.87427206
H -0.28164189 -1.30513042 1.65189199
C 0.28853116 2.43061370 0.87930568
N -1.00453553 3.72293917 -0.43914170
C -1.53075823 2.45431404 -0.63239313
C 0.05854325 3.69897775 0.44927502
C -1.89124190 -0.66631809 -0.17250237
C -3.25029749 -0.33187644 0.05595292
C -1.59539618 -1.87144008 -0.85968422
C -4.27753041 -1.16095134 -0.41141414
C -2.62516494 -2.69647813 -1.32867088
C -3.97241842 -2.34607101 -1.11004585
C 2.46441591 -0.85610565 1.92188701
C 1.98105642 -0.86058522 -0.46001349
C 3.81779787 -1.09131903 1.64535554
C 3.33574411 -1.09736160 -0.73078654
C 4.28642977 -1.20871324 0.31369472
H -1.38465763 4.53203721 -0.90891924
O -2.49159040 2.23750198 -1.37245430
H -3.50188868 0.58081702 0.59750662
H -0.55593560 -2.16137125 -1.01844880
H -5.31645238 -0.88394179 -0.22728257
H -2.37605770 -3.61635181 -1.85970573
H -4.77413722 -2.98940269 -1.47648687
H 2.14150454 -0.76653879 2.96137980
H 1.28687743 -0.76795230 -1.29736881
H 4.51349236 -1.18568208 2.48207076
H 3.65061361 -1.19459036 -1.77220381
N 5.66464623 -1.45046746 0.03591975
H 1.05814094 2.11964625 1.57150303
H 0.56859139 4.61906153 0.69894168
H 6.29402174 -1.08110024 0.74948873
H 5.96264955 -1.10675657 -0.87768478
