36

C -0.74323741 1.62585115 0.06054417
C -0.76671516 0.27765445 0.35436174
N 0.28167995 -0.31702699 1.10044239
C 1.63489882 -0.62712495 0.73010236
H 0.19574578 -0.10240805 2.09427776
C -1.02774719 2.71700637 0.97588027
N -0.58494627 3.61025749 -1.05120528
C -0.45280839 2.24824034 -1.27874248
C -0.91796138 3.87422984 0.26998592
C -1.88743675 -0.63702604 0.02821461
C -3.21930614 -0.31963421 0.39436746
C -1.62608460 -1.88410759 -0.59230838
C -4.26189879 -1.21458851 0.12175592
C -2.67063864 -2.77632251 -0.86300440
C -3.99532934 -2.44647338 -0.51030665
C 2.24905494 -1.75932235 1.31951483
C 2.38949405 0.13113154 -0.19781760
C 3.57100000 -2.10555691 1.00823030
C 3.71131460 -0.21980482 -0.50603040
C 4.33641804 -1.33823780 0.09705873
H -0.44619133 4.28555019 -1.78921878
O -0.14180857 1.76967315 -2.36885252
H -3.43259590 0.62724207 0.89290718
H -0.60135673 -2.14689288 -0.85971343
H -5.28257250 -0.95246017 0.40448492
H -2.45227460 -3.72918881 -1.34748092
H -4.80913454 -3.14186683 -0.72299897
H 1.69160177 -2.37996867 2.02499274
H 1.95906817 0.99732228 -0.69838641
H 4.00595006 -2.98792982 1.48306148
H 4.25663180 0.38951737 -1.23028524
N 5.68129287 -1.69392069 -0.21992138
H -1.28101664 2.62335774 2.02224066
H -1.05246778 4.89796953 0.59177726
H 6.16311939 -2.18357504 0.53460752
H 6.25202242 -0.90292151 -0.51989937
