36

C -1.02370648 2.16876964 0.25678405
C -0.41690049 1.02274259 -0.21902866
N 0.98470842 0.89677760 -0.01596321
C 1.80261255 -0.21759366 0.39101642
H 1.45291034 1.36950077 -0.79097424
C -0.76591011 3.53566438 -0.16483479
N -2.34787156 3.59828806 1.44701184
C -2.09599682 2.24104216 1.31258716
C -1.57132105 4.34601967 0.57291071
C -1.12363306 -0.13168377 -0.83428632
C -2.21968206 -0.74488164 -0.17719667
C -0.69359216 -0.65613572 -2.07855147
C -2.86645051 -1.84711701 -0.74886485
C -1.34244482 -1.75904746 -2.64766202
C -2.43229823 -2.36190385 -1.98706087
C 3.19765122 -0.00335435 0.54078168
C 1.30178835 -1.51162178 0.68393833
C 4.05283766 -1.04566610 0.92340849
C 2.16174878 -2.54943479 1.06884969
C 3.55759871 -2.34567565 1.18300095
H -3.02481046 3.94983413 2.10892620
O -2.68718567 1.37038033 1.96472770
H -2.55887500 -0.35862076 0.78635052
H 0.15253023 -0.19814188 -2.59209423
H -3.70663110 -2.30525761 -0.22519365
H -0.99693874 -2.15021335 -3.60573318
H -2.93611638 -3.22245134 -2.43061852
H 3.62550454 0.98589374 0.35983383
H 0.23707789 -1.73037486 0.62384790
H 5.12023270 -0.83528457 1.02092098
H 1.73178601 -3.53034890 1.28363000
N 4.43044653 -3.40591157 1.56958975
H -0.06062905 3.84973784 -0.92104606
H -1.66977530 5.42295058 0.56023132
H 5.37899074 -3.30586600 1.20689381
H 4.07810436 -4.33236287 1.32650040
