
     RDKit          3D

  4  3  0  0  0  0  0  0  0  0999 V2000
    1.1782   -0.1310    0.0623 O   0  0  0  0  0  0  0  0  0  0  0  0
   -0.0255   -0.0253   -0.0006 C   0  0  0  0  0  0  0  0  0  0  0  0
   -0.4229    0.9962   -0.0466 H   0  0  0  0  0  0  0  0  0  0  0  0
   -0.7298   -0.8400   -0.0151 H   0  0  0  0  0  0  0  0  0  0  0  0
  2  1  2  0
  2  3  1  0
  2  4  1  0
M  END
