34

C -0.581881045296 -0.212187462977 0.092216271458
N 0.596999200394 -0.272863104006 0.780679117404
C 1.833324641899 0.416806404288 0.737013009252
C 2.960062187781 -0.307205025963 1.152942105225
H 0.514891592961 -0.889435836640 1.603070123747
C 1.950499954735 1.803916823671 0.602188849748
C -1.660283826279 -0.882650428862 0.658895489871
N -2.809057981018 -2.141309965238 2.149504713356
C -3.061825088121 -0.946136795331 0.262204026575
C -1.548353943285 -1.655656018937 1.889561844649
C -3.718114919118 -1.698558988505 1.174227757462
C -0.714598226997 0.334014594854 -1.296774287417
C -0.122722873371 1.497326316041 -1.801907697635
C -1.366786807592 -0.508059368008 -2.221181373627
C -0.234637433952 1.839282265673 -3.148017712396
C -1.474748199689 -0.170304275749 -3.564095208547
C -0.913241065051 1.013177174741 -4.036063291551
C 4.193811882013 0.315873692685 1.292024578723
C 3.191402963887 2.424449694814 0.724787146068
C 4.322418907204 1.683564428648 1.054287435255
H 2.857735325836 -1.368071793599 1.338170683271
H 1.066623102607 2.409424848338 0.483714906008
H -3.018304199752 -2.713031936829 2.944454689480
O -0.520452827090 -1.873165225639 2.601619049265
H 0.401510660534 2.174903621469 -1.157363381078
H -1.765125562459 -1.451860183710 -1.882145176142
H 0.219212351597 2.756319403632 -3.497622588595
H -1.982054682778 -0.842526113288 -4.242404293713
H -0.993125764497 1.279957211571 -5.080802944442
H 5.052546883679 -0.266354151905 1.596276867015
H 3.261897955535 3.496880676756 0.603295689377
H -3.509877356264 -0.442900589802 -0.575338655514
H -4.760726478084 -1.951417211791 1.239430479429
H 5.282530103214 2.169112712656 1.158097093629
