34

C -0.53397938 -0.03458599 0.40167027
N 0.76112727 -0.48275913 0.65792128
C 2.03774746 -0.21873419 0.08565713
C 2.26268528 0.66373986 -1.00444552
H 0.82061542 -0.92806127 1.59383303
C 3.15199375 -0.92931214 0.61554878
C -1.52723950 -0.26589373 1.36730917
N -2.47056301 -0.88110557 3.34876149
C -2.95760859 -0.05983477 1.30684860
C -1.25574528 -0.82757980 2.71058335
C -3.48624661 -0.42749533 2.50573227
C -0.88996231 0.56085866 -0.91517516
C -1.57140586 1.80283471 -0.98671720
C -0.66222545 -0.16535662 -2.11388276
C -1.97305274 2.32174686 -2.22439705
C -1.06423288 0.35990986 -3.34873002
C -1.71904481 1.60667791 -3.41254174
C 3.54862897 0.82098661 -1.54195804
C 4.43265234 -0.76226047 0.07246154
C 4.64271390 0.11133327 -1.01104540
H 1.45335316 1.24967890 -1.43437557
H 3.01472630 -1.61685896 1.45410634
H -2.56862243 -1.21983739 4.29475626
O -0.15603043 -1.19929494 3.19425175
H -1.77665391 2.35709284 -0.06878411
H -0.17024409 -1.13892829 -2.06813212
H -2.48450541 3.28497311 -2.26630043
H -0.86876867 -0.20087658 -4.26430891
H -2.03120150 2.01400373 -4.37590733
H 3.69578863 1.50438022 -2.38028634
H 5.26975245 -1.31925466 0.49660529
H -3.52074862 0.31989890 0.46555099
H -4.51183454 -0.41252247 2.84732555
H 5.64129312 0.23777885 -1.43304642
