34

C -0.52645468 -0.13937880 0.20952219
N 0.73962171 -0.65967042 0.44919208
C 2.05743415 -0.27800023 0.09095396
C 3.04790564 -1.27973707 -0.07774702
H 0.71699674 -1.39737679 1.17135930
C 2.46396806 1.08211231 0.13512692
C -1.51327735 -0.66085710 1.04212144
N -2.95572613 -2.17794520 1.89786839
C -2.24775855 -0.04760621 2.12100314
C -1.98646486 -2.05305887 0.92986877
C -3.10876663 -0.98280147 2.60655568
C -0.91849984 0.71759721 -0.97598998
C 0.01241783 1.27780520 -1.89955728
C -2.29869265 1.02671007 -1.18470217
C -0.40838860 2.10952192 -2.94709788
C -2.71255053 1.85450542 -2.23676562
C -1.77098856 2.40570384 -3.12253775
C 4.38540629 -0.92356668 -0.29947583
C 3.80338292 1.42856262 -0.08934259
C 4.77297586 0.43147817 -0.31680755
H 2.76639841 -2.33512853 -0.05276853
H 1.73380494 1.86687296 0.34496277
H -3.45639900 -3.04305423 2.04023324
O -1.59618848 -2.96289952 0.16952251
H 1.07219542 1.05605580 -1.83377512
H -3.06269532 0.62369649 -0.51858178
H 0.33111697 2.52707977 -3.63317790
H -3.77399388 2.07411692 -2.36541635
H -2.09459519 3.05324840 -3.93929677
H 5.12754045 -1.70773730 -0.45822151
H 4.09051958 2.48137107 -0.08245878
H -2.14343141 0.96688407 2.47902438
H -3.82791588 -0.91436707 3.41094098
H 5.81426260 0.70520426 -0.49564835
