34

C -0.44072306 0.01780546 0.37089195
N 0.79572861 -0.60156495 0.53696428
C 2.08849353 -0.34031055 0.00408616
C 2.31951830 0.22879589 -1.27577125
H 0.80919252 -1.21119172 1.37661862
C 3.21505086 -0.68440853 0.80317155
C -1.45758724 -0.31576856 1.28093474
N -2.47909744 -1.21055545 3.11160008
C -2.85661646 0.05095269 1.28207280
C -1.25673279 -1.14910646 2.48935799
C -3.43391104 -0.49653671 2.38605501
C -0.78917667 0.61760443 -0.93982175
C -1.30069024 1.94205585 -0.98616405
C -1.08189254 -0.23754504 -2.03739091
C -1.90362949 2.44272586 -2.14691327
C -1.68271810 0.26226468 -3.19998296
C -2.08270815 1.61092939 -3.26923784
C 3.62794441 0.44737195 -1.73171678
C 4.51742531 -0.46096818 0.33778386
C 4.73590605 0.10673121 -0.93182898
H 1.49475453 0.50360272 -1.92903946
H 3.07028643 -1.12549638 1.79275803
H -2.62146518 -1.71932380 3.97193865
O -0.20190133 -1.70547323 2.88940173
H -1.20803941 2.57653496 -0.10204186
H -0.82321890 -1.29636991 -1.96989300
H -2.24027684 3.48044299 -2.17769407
H -1.84549297 -0.39899429 -4.05277384
H -2.54276050 2.00338793 -4.17782289
H 3.78244063 0.88598771 -2.71921202
H 5.36483136 -0.73164306 0.97008313
H -3.36656197 0.65422763 0.54370045
H -4.45625484 -0.44581423 2.73369307
H 5.75151059 0.28015771 -1.29175817
