34

C -0.56769950 -0.17062686 0.30041674
N 0.63912407 -0.86951188 0.29212817
C 1.93090645 -0.61388401 -0.24930417
C 2.94231770 -1.59382825 -0.03682092
H 0.63586673 -1.62699687 1.00202675
C 2.29455711 0.59101788 -0.90875122
C -1.57083383 -0.57100107 1.19799633
N -2.57814294 -1.70594462 2.89771266
C -2.93893191 -0.12188179 1.33531620
C -1.38550525 -1.62407622 2.22238394
C -3.50543921 -0.81058409 2.36297382
C -0.83436254 0.89943090 -0.69937262
C -1.30155945 2.17468054 -0.28948188
C -0.73414070 0.62074856 -2.08791687
C -1.61895749 3.15332947 -1.24033397
C -1.04826720 1.60520696 -3.03355666
C -1.48944641 2.87744609 -2.61675551
C 4.24417625 -1.39582723 -0.51654109
C 3.59963041 0.77685835 -1.38752450
C 4.58277083 -0.21362060 -1.20165497
H 2.70679717 -2.51732227 0.49854152
H 1.57914998 1.39834453 -1.04894417
H -2.72116047 -2.34748555 3.66387102
O -0.36462349 -2.32269123 2.44921878
H -1.40721099 2.39245351 0.77512294
H -0.40927148 -0.36841706 -2.41647587
H -1.96686115 4.13421409 -0.91186439
H -0.95039159 1.38339730 -4.09756591
H -1.73260197 3.64289691 -3.35590941
H 4.99733271 -2.16902419 -0.35478626
H 3.85014226 1.70392655 -1.90636099
H -3.43641589 0.62877729 0.73684262
H -4.50368350 -0.75080305 2.77328865
H 5.59589329 -0.06386004 -1.57902979
