34

C -0.617551509376 -0.330072249888 0.262938864072
N 0.430667890946 -1.143571528773 -0.041655126372
C 1.689200897701 -0.720938858919 -0.559771427858
C 2.480379428107 0.180415055884 0.153575793128
H 0.332518871909 -2.106851406210 0.289686496295
C 2.161085174647 -1.269248872784 -1.752195136603
C -1.652912452785 -0.821580329625 1.029099818114
N -2.821137958031 -2.308047300119 2.267723183937
C -2.914886341706 -0.217897293293 1.434762479834
C -1.640271455341 -2.175805438398 1.568951436654
C -3.585101567875 -1.130706454249 2.174141876791
C -0.611450522871 1.065102915310 -0.246564447774
C -0.860590199244 2.133733683019 0.620538139596
C -0.373635017812 1.323927192451 -1.600908571205
C -0.860679716194 3.441343676520 0.142229979239
C -0.381204818982 2.629945094220 -2.077409520561
C -0.621287939222 3.692019758019 -1.206778568206
C 3.720470938190 0.563574133647 -0.347345989427
C 3.409758428777 -0.895381749624 -2.242415527396
C 4.189046759711 0.026008208348 -1.545038792638
H 2.114061634824 0.578590614187 1.089347922482
H 1.543345361534 -1.977625268241 -2.287314027785
H -3.083729397937 -3.150105084692 2.741540110463
O -0.761573500490 -3.076103418000 1.430927147383
H -1.036438749766 1.936263591293 1.669065689908
H -0.185636752706 0.502070443983 -2.277182492374
H -1.043403465286 4.261739540220 0.822750607737
H -0.198447948151 2.818687730114 -3.126170544328
H -0.621970560504 4.707630104370 -1.578266171458
H 4.324973794119 1.270969205731 0.203517278627
H 3.772396567160 -1.321524710425 -3.167763181906
H -3.260848135729 0.767347619715 1.178019714219
H -4.547431862002 -1.063767902479 2.648674485205
H 5.155851371504 0.319575087977 -1.929844117737
