34

C -0.62217339 -0.34757345 0.20193778
N 0.54245753 -1.09828940 0.12079467
C 1.80550412 -0.76081069 -0.42125888
C 2.77569432 -0.13465139 0.39810501
H 0.52850946 -1.94525948 0.72168521
C 2.13540671 -1.09768839 -1.75622285
C -1.64674675 -0.78749152 1.05317079
N -2.70614255 -2.03038259 2.64055231
C -3.00615684 -0.31880192 1.20402990
C -1.50278899 -1.92679813 1.98709202
C -3.60422599 -1.07228527 2.16663041
C -0.72126015 0.94665359 -0.53623228
C -1.15661832 2.12265140 0.13093293
C -0.49247371 1.00931823 -1.93587164
C -1.30858374 3.32641904 -0.56984330
C -0.64127865 2.21652848 -2.63110464
C -1.04575035 3.38333534 -1.95299854
C 4.03485117 0.18826818 -0.12594125
C 3.39709613 -0.77013858 -2.27170278
C 4.35421435 -0.12085606 -1.46449557
H 2.54061190 0.10262083 1.43782926
H 1.40872861 -1.61568222 -2.38524473
H -2.87637913 -2.72828421 3.35000870
O -0.50515133 -2.67135191 2.16349768
H -1.36448108 2.08912617 1.20210126
H -0.20807012 0.10855179 -2.47899535
H -1.63223364 4.22399361 -0.03996074
H -0.44768876 2.24982639 -3.70477541
H -1.15927310 4.32312641 -2.49650631
H 4.76956908 0.68214263 0.51226311
H 3.63552480 -1.02448966 -3.30593833
H -3.47507759 0.48822436 0.65807226
H -4.60690698 -1.02060434 2.56741922
H 5.33444797 0.13599576 -1.87014190
