34

C -0.525867722648 -0.206939135878 0.293963749802
N 0.576986411462 -0.997865475720 0.167133288961
C 1.861159948021 -0.704301762242 -0.382117857041
C 2.949627592857 -0.798845266774 0.494405848286
H 0.543179538971 -1.819554989441 0.780345475527
C 2.095138424233 -0.422310946785 -1.727485212752
C -1.539660819784 -0.630376312651 1.131824695478
N -2.596620118854 -1.885908735514 2.686212996424
C -2.863832185694 -0.074920510124 1.375592302372
C -1.412065575932 -1.803956747992 1.988008013581
C -3.465791343223 -0.846051652040 2.309280948699
C -0.721024597538 1.015294907218 -0.531495556584
C -1.042643662000 2.223640827459 0.097779717242
C -0.810334360305 0.939106473128 -1.925493211581
C -1.352918019912 3.353041514024 -0.653986839356
C -1.128107949175 2.065738187958 -2.677650823116
C -1.386988250242 3.279389635114 -2.044631983135
C 4.245574238844 -0.587890577485 0.038454118252
C 3.394684334220 -0.194631736070 -2.176877189171
C 4.472878515701 -0.274209326792 -1.300675061776
H 2.762551383298 -1.033909567679 1.533663713318
H 1.281392881616 -0.399360961354 -2.430129561449
H -2.789657394188 -2.610627188041 3.349929261333
O -0.440184723462 -2.610550081269 2.090559254860
H -1.029007110588 2.275760942713 1.177810456762
H -0.678683073494 -0.013765376787 -2.416841702113
H -1.576442911392 4.285316140394 -0.153843136014
H -1.190959243013 1.990644767338 -3.754673762544
H -1.631431785135 4.155552678826 -2.629433622801
H 5.074283796203 -0.663725824346 0.728941976885
H 3.560812529595 0.028331222539 -3.222028619721
H -3.291874921863 0.782861652428 0.888108699617
H -4.445342061506 -0.766722016426 2.744887085916
H 5.478853274715 -0.102699067218 -1.657817038092
