34

C -0.55972018 -0.13510145 0.33766681
N 0.59927623 -0.90868690 0.33565200
C 1.88039925 -0.68698462 -0.23172019
C 2.65229543 -1.80318230 -0.64258506
H 0.62530587 -1.56509363 1.13844647
C 2.44713885 0.61110427 -0.31655623
C -1.55563957 -0.49981156 1.25766920
N -2.47432405 -1.29595077 3.18244544
C -2.99717944 -0.42456610 1.17034828
C -1.26125166 -1.13950725 2.55838645
C -3.51108981 -0.88057527 2.34503249
C -0.79173778 0.93207757 -0.69768024
C -1.72320124 1.98211251 -0.45573227
C -0.22836625 0.84008898 -2.00470318
C -2.02173737 2.92757794 -1.44549565
C -0.52623952 1.79299068 -2.98806196
C -1.42022637 2.84481383 -2.71497538
C 3.93627069 -1.61753188 -1.17280622
C 3.73256684 0.78560743 -0.84765320
C 4.48497801 -0.32383709 -1.28433707
H 2.24339672 -2.81211981 -0.55418112
H 1.88685958 1.48133260 0.03025752
H -2.55568589 -1.68916621 4.10869053
O -0.15107604 -1.51140340 3.00809151
H -2.20218706 2.06951872 0.52071524
H 0.43607955 0.01513802 -2.26312665
H -2.72458161 3.73384263 -1.22802434
H -0.06501483 1.71348290 -3.97417215
H -1.65017820 3.58561793 -3.48294562
H 4.50991754 -2.48629022 -1.50089043
H 4.14870319 1.79191175 -0.92035213
H -3.57534566 -0.05984957 0.33234044
H -4.53917188 -0.95953114 2.66979008
H 5.48392468 -0.18268658 -1.70064436
