34

C -0.42312582 -0.03725704 0.38175741
N 0.77423688 -0.72856294 0.51581827
C 2.05803521 -0.45933289 -0.02357798
C 2.30693111 -0.40719061 -1.41752397
H 0.77713408 -1.37410896 1.32911361
C 3.13396841 -0.23503376 0.87472224
C -1.46239372 -0.36398719 1.26597990
N -2.52846995 -1.26338961 3.06669176
C -2.85089917 0.03874334 1.25469176
C -1.29783762 -1.22520895 2.45900839
C -3.45584947 -0.51293911 2.34157353
C -0.71526787 0.66608758 -0.89115902
C -1.14915973 2.01869388 -0.84839592
C -1.07772238 -0.09617584 -2.03607717
C -1.72357493 2.63102793 -1.96917695
C -1.64834017 0.51402326 -3.16026116
C -1.95828810 1.88742592 -3.14153270
C 3.59548157 -0.12754717 -1.89498150
C 4.41787264 0.04334243 0.38743564
C 4.65985541 0.10085928 -0.99956444
H 1.50600121 -0.58917320 -2.13254164
H 2.96214097 -0.27750708 1.95294528
H -2.69414656 -1.78247073 3.91657624
O -0.26327764 -1.81789388 2.85843394
H -1.01754573 2.58701451 0.07502211
H -0.89963841 -1.17385906 -2.03402912
H -1.99626250 3.68699379 -1.92908520
H -1.86027881 -0.08103083 -4.05030909
H -2.39394828 2.36682301 -4.01983037
H 3.76961655 -0.08828447 -2.97168548
H 5.23199369 0.21628062 1.09339182
H -3.33385405 0.66911474 0.52066626
H -4.48086246 -0.44265172 2.67770479
H 5.66069762 0.31914976 -1.37641227
