34

C -0.59128159 -0.24265098 0.32270078
N 0.63303060 -0.89643567 0.40113233
C 1.89410906 -0.60172972 -0.17859819
C 2.77698182 -1.67154207 -0.47592351
H 0.66994903 -1.57223608 1.18921411
C 2.32623994 0.72949463 -0.41075072
C -1.59776726 -0.57712373 1.24012478
N -2.58939107 -1.53061135 3.05433250
C -2.99540325 -0.20827419 1.27411612
C -1.38331757 -1.46960141 2.40056896
C -3.55263770 -0.78285291 2.37460443
C -0.80908075 0.79944198 -0.72058094
C -1.33927502 2.06955540 -0.37514546
C -0.55574924 0.51270505 -2.08753114
C -1.58393313 3.02975517 -1.36534508
C -0.79963717 1.47847628 -3.07257379
C -1.31359081 2.74242670 -2.71858204
C 4.03963582 -1.41476138 -1.02721001
C 3.58959145 0.97512487 -0.96596586
C 4.45479362 -0.09197293 -1.28118826
H 2.47155163 -2.70177281 -0.27952467
H 1.68307931 1.57353473 -0.15842740
H -2.71777114 -2.06747442 3.89948044
O -0.33267353 -2.07140262 2.73892805
H -1.55066371 2.29893362 0.67114081
H -0.16931112 -0.46840492 -2.37034098
H -1.98524338 4.00501216 -1.08467114
H -0.59178036 1.24876294 -4.11898173
H -1.50337182 3.49308360 -3.48799701
H 4.70134744 -2.25102920 -1.25937511
H 3.90033824 2.00472774 -1.15168535
H -3.51661536 0.41401088 0.55991122
H -4.56641292 -0.73397822 2.74679197
H 5.43741794 0.10415087 -1.71375913
