34

C -0.28244172 0.07852435 0.58731854
N 0.89320056 -0.62145764 0.34732356
C 1.90675966 -0.36545284 -0.60999768
C 2.66654140 -1.44901329 -1.11785519
H 1.22250736 -1.15448563 1.17524796
C 2.15841313 0.94283584 -1.09505046
C -0.94856408 -0.22421023 1.78725870
N -1.28814175 -0.99020850 3.90803201
C -2.29791228 0.08690033 2.20532372
C -0.33283624 -0.95010096 2.92289468
C -2.46422807 -0.37796044 3.47344590
C -1.02755780 0.59162401 -0.59535121
C -1.30898038 -0.25689453 -1.69942739
C -1.68899969 1.84479025 -0.52140187
C -2.13577643 0.18084161 -2.74238114
C -2.51921298 2.27670361 -1.56365074
C -2.73924196 1.45314243 -2.68571859
C 3.65709733 -1.22436345 -2.08363014
C 3.15075343 1.15620581 -2.06179684
C 3.90797022 0.07754881 -2.56297068
H 2.48106880 -2.46277165 -0.75608180
H 1.58428315 1.79111240 -0.71814985
H -1.12040901 -1.42355785 4.80422352
O 0.81869114 -1.44892422 2.99902728
H -0.87221656 -1.25663124 -1.73628810
H -1.53872456 2.47688431 0.35634672
H -2.31589804 -0.46933983 -3.60026764
H -2.99884603 3.25517835 -1.50279836
H -3.37975871 1.79448738 -3.50095596
H 4.23506675 -2.06864952 -2.46350851
H 3.33372076 2.16872584 -2.42556648
H -3.05100932 0.60262280 1.62589337
H -3.32650296 -0.33124216 4.12390659
H 4.68066485 0.24871387 -3.31463192
