34

C -0.30644143 -0.71465168 -0.09470831
N 0.64744022 -0.29206640 0.84779062
C 1.88154341 0.42541877 0.83512179
C 2.79303785 0.10703894 1.88921621
H 0.46618261 -0.72119044 1.77427162
C 2.35991106 1.27241052 -0.20097352
C -1.50881668 -1.12442286 0.52642810
N -2.89609138 -2.10747538 2.05482056
C -2.88023309 -1.05737365 0.06242598
C -1.57619551 -1.79275169 1.84977887
C -3.67491686 -1.65565431 0.99099656
C -0.51155408 0.04796239 -1.36273244
C -0.54442820 1.47125558 -1.38057691
C -1.00279615 -0.63736859 -2.50742088
C -0.89877429 2.16783221 -2.54331882
C -1.36305655 0.06145450 -3.66666923
C -1.29623514 1.46782702 -3.69867206
C 4.06385199 0.69303710 1.95340123
C 3.63177052 1.86052594 -0.12464297
C 4.49042456 1.58581200 0.95474988
H 2.49858763 -0.59481163 2.67455979
H 1.77558965 1.47881870 -1.09000183
H -3.21374965 -2.58779860 2.88405137
O -0.63904349 -2.01827859 2.65512520
H -0.30702471 2.02999370 -0.47305814
H -1.08423792 -1.72631902 -2.48124499
H -0.87297296 3.25898699 -2.54872755
H -1.69885730 -0.48838134 -4.54761314
H -1.56492979 2.01143369 -4.60617840
H 4.72292275 0.45052521 2.78883140
H 3.95587744 2.53329550 -0.92102410
H -3.22912055 -0.62483357 -0.86520947
H -4.74503176 -1.80823896 0.99584629
H 5.47691783 2.04930494 1.01030331
