34

C -0.54475405 -0.09829007 0.45934620
N 0.75390237 -0.48012515 0.77568107
C 1.99584069 -0.21386198 0.14301747
C 2.23353644 0.97161071 -0.59946104
H 0.83708727 -0.82435991 1.75224606
C 3.01980739 -1.19273833 0.21984947
C -1.54891490 -0.24527166 1.42715734
N -2.50785635 -0.66007136 3.44990439
C -2.98380043 -0.10427692 1.31752040
C -1.28382484 -0.64036653 2.82830605
C -3.52219645 -0.34577743 2.54376050
C -0.84680859 0.45198496 -0.89218233
C -1.57455594 1.66151560 -1.03480928
C -0.47332121 -0.26394906 -2.05971914
C -1.89643138 2.15029175 -2.30746694
C -0.79713348 0.23075007 -3.32971658
C -1.50893208 1.44029786 -3.46196531
C 3.46243339 1.16618967 -1.24517965
C 4.24500718 -0.98763742 -0.42888704
C 4.47678515 0.19077720 -1.16648271
H 1.46817376 1.74561001 -0.66977529
H 2.85471640 -2.11221101 0.78622281
H -2.61185308 -0.88886488 4.42767435
O -0.18204617 -0.91839724 3.36632152
H -1.87793465 2.21504424 -0.14408141
H 0.06850682 -1.20692080 -1.96406795
H -2.44967762 3.08620526 -2.40285481
H -0.49837769 -0.32519682 -4.22015133
H -1.76103223 1.82347916 -4.45240193
H 3.62935517 2.08363810 -1.81224617
H 5.02106607 -1.75178525 -0.35876711
H -3.54174146 0.14926631 0.42670548
H -4.55378558 -0.32841227 2.86632729
H 5.43192007 0.34719719 -1.67093535
