34

C -0.55194136 -0.26346253 0.23646737
N 0.72500099 -0.71003249 0.53056176
C 2.01011076 -0.23082038 0.16986937
C 3.08545171 -1.14764431 0.05081254
H 0.72642618 -1.42590074 1.27358475
C 2.27183111 1.15776710 0.03998718
C -1.56292527 -0.79507678 1.02818563
N -3.07439902 -2.30945308 1.75545766
C -2.26619475 -0.24150169 2.15864462
C -2.09945025 -2.14809839 0.79811837
C -3.17389753 -1.17160598 2.56185839
C -0.88608018 0.62195188 -0.93029417
C -0.02810984 0.74688399 -2.06001853
C -2.06162061 1.42461262 -0.89848841
C -0.33233988 1.63346627 -3.10181396
C -2.36180518 2.30585054 -1.94590536
C -1.49923969 2.41860957 -3.05232334
C 4.37695506 -0.68703828 -0.24107024
C 3.56633347 1.60738307 -0.25417716
C 4.62752235 0.69106730 -0.40089583
H 2.90861218 -2.21836000 0.17644928
H 1.46734310 1.88476138 0.16656857
H -3.61563967 -3.15893476 1.82462467
O -1.75822255 -3.00469454 -0.04361855
H 0.87257439 0.13803675 -2.13775109
H -2.74170179 1.36495770 -0.04785079
H 0.34237828 1.71328694 -3.95608898
H -3.26826555 2.91189389 -1.89897056
H -1.73362074 3.10854017 -3.86492242
H 5.19034983 -1.40751656 -0.34364395
H 3.74663946 2.67778722 -0.36714345
H -2.11172654 0.73126270 2.60404102
H -3.89099165 -1.13786882 3.37028751
H 5.63380219 1.04523020 -0.63165792
