34

C -0.44334180 -0.17856151 0.36512623
N 0.60519574 -1.05523082 0.14689387
C 1.92712147 -0.75045953 -0.25487415
C 2.91079303 -0.47067210 0.72416955
H 0.47761298 -1.98010436 0.60212477
C 2.26965671 -0.68236040 -1.62642134
C -1.57293912 -0.66217952 1.03965696
N -2.89174835 -2.06197153 2.25808678
C -2.85367605 -0.03411460 1.27328848
C -1.64307708 -1.98916418 1.69132310
C -3.61434117 -0.89469304 2.00322909
C -0.50999435 1.04442212 -0.47223018
C -0.69897063 2.30514108 0.15341423
C -0.86355834 0.93246049 -1.84434237
C -1.03389995 3.43941162 -0.59699882
C -1.19786698 2.06575980 -2.59688800
C -1.26634048 3.33109329 -1.98201417
C 4.21442590 -0.13598752 0.33380658
C 3.57595736 -0.34457453 -2.00697962
C 4.55799562 -0.06903665 -1.03252847
H 2.65354324 -0.51748653 1.78456772
H 1.51899120 -0.89394544 -2.38971542
H -3.20230170 -2.87085829 2.77609529
O -0.76319402 -2.88631352 1.73404696
H -0.56550981 2.38469249 1.23447933
H -0.86817638 -0.05306391 -2.31441972
H -1.12067158 4.40892436 -0.10344410
H -1.41376789 1.96504278 -3.66207368
H -1.51431504 4.21660552 -2.56992923
H 4.96425580 0.07286863 1.09863910
H 3.82882216 -0.29651605 -3.06755020
H -3.16257354 0.94574093 0.93636522
H -4.62297252 -0.78651222 2.37698475
H 5.57412357 0.19343913 -1.33263953
