34

C -0.58358454 -0.17401008 0.13159007
N 0.72885225 -0.63156809 0.35048504
C 2.06684996 -0.36028210 -0.04643864
C 2.97726106 -1.45544400 -0.09147166
H 0.71831220 -1.42984083 1.01218017
C 2.61516956 0.94797786 -0.09150127
C -1.49105967 -0.61532935 1.11194553
N -2.53449066 -2.02749511 2.56251861
C -2.57715062 0.08086309 1.76532350
C -1.46291315 -1.96963664 1.70635516
C -3.19037807 -0.79601681 2.60658381
C -1.03539726 0.89585201 -0.84182586
C -0.19260350 1.79115823 -1.56151257
C -2.37386369 0.77789953 -1.34087179
C -0.69177689 2.63732035 -2.56285444
C -2.87354643 1.62069120 -2.34172232
C -2.04025611 2.57351323 -2.94742369
C 4.33513826 -1.25071814 -0.36944757
C 3.97289602 1.14811129 -0.37939790
C 4.84126809 0.05167170 -0.53941012
H 2.61025488 -2.47428335 0.05871229
H 2.00031510 1.81689804 0.14215693
H -2.76129473 -2.86150550 3.08421181
O -0.62027503 -2.87877911 1.52087116
H 0.86550120 1.84516903 -1.36754651
H -3.04153530 0.01795361 -0.93022274
H -0.02185917 3.34697589 -3.05225793
H -3.91569377 1.53313752 -2.65382241
H -2.42902815 3.24087330 -3.71840657
H 4.99888295 -2.11268647 -0.45501908
H 4.35656213 2.16627157 -0.46498646
H -2.87334277 1.10802834 1.60223242
H -4.04860715 -0.65905292 3.24951353
H 5.89596301 0.20941470 -0.77107451
