34

C -0.47796799 0.04881513 0.36361535
N 0.75815124 -0.51443594 0.66723690
C 2.07469531 -0.25662049 0.19524425
C 2.37870634 0.72266709 -0.78688089
H 0.73772775 -1.01062764 1.57894369
C 3.13733806 -1.04697040 0.71504928
C -1.54977266 -0.23110289 1.22655183
N -2.67689992 -0.97785910 3.06103288
C -2.95550419 0.07923565 1.08945133
C -1.41389448 -0.93174580 2.52429402
C -3.59666196 -0.37719555 2.19968413
C -0.73550823 0.51008916 -1.02313801
C -1.27671400 1.80486635 -1.23868723
C -0.84834626 -0.44086538 -2.07134841
C -1.75729845 2.18086645 -2.49930264
C -1.32578431 -0.06371496 -3.33317514
C -1.77010391 1.25386230 -3.55988040
C 3.69785520 0.89970480 -1.22916332
C 4.45177044 -0.85953397 0.26705529
C 4.74382744 0.11313744 -0.70831982
H 1.60111236 1.35715555 -1.20846493
H 2.93401322 -1.80916978 1.47151637
H -2.86643755 -1.40260748 3.95712125
O -0.37501433 -1.40537745 3.05150975
H -1.30676162 2.51277473 -0.40772100
H -0.54832610 -1.47457624 -1.88858277
H -2.12659411 3.19575877 -2.65624147
H -1.35797641 -0.79572726 -4.14191303
H -2.13496505 1.54929543 -4.54514778
H 3.90968565 1.65775013 -1.98519583
H 5.25105983 -1.47636827 0.68151330
H -3.42688905 0.58480698 0.25784590
H -4.64346526 -0.33217696 2.46603132
H 5.76855598 0.25584857 -1.05612316
