34

C -0.44085641 -0.04040700 0.39641798
N 0.70000404 -0.83236744 0.31034604
C 2.00921760 -0.57850236 -0.18340132
C 2.96684738 -1.62752028 -0.10825513
H 0.65237210 -1.64182237 0.95866246
C 2.41931889 0.67442262 -0.71122536
C -1.49026644 -0.49704952 1.20988975
N -2.61438781 -1.75623984 2.74090881
C -2.82994574 0.02234168 1.37260615
C -1.39562704 -1.66562832 2.11491038
C -3.47066145 -0.74944698 2.29224111
C -0.70199364 0.95705993 -0.67036357
C -1.03134577 2.29150956 -0.31428610
C -1.04094463 0.51398489 -1.97582149
C -1.52181965 3.18881049 -1.27132964
C -1.53003159 1.41177939 -2.93338027
C -1.75947334 2.75932759 -2.59178952
C 4.27707640 -1.43202782 -0.56439377
C 3.73367399 0.85856013 -1.16471271
C 4.67147839 -0.19026575 -1.09831616
H 2.68334653 -2.59856311 0.30522045
H 1.72862279 1.51368036 -0.77049362
H -2.81901290 -2.47298823 3.42176199
O -0.42073015 -2.43985698 2.29223077
H -0.88901645 2.61576746 0.71881174
H -0.90787096 -0.53894515 -2.23250866
H -1.72414648 4.22330089 -0.98860418
H -1.73868803 1.06358530 -3.94636607
H -2.13223660 3.46115732 -3.33993548
H 4.99279427 -2.25350189 -0.50178675
H 4.02761304 1.82795371 -1.57108651
H -3.25929578 0.87256620 0.86066616
H -4.47758113 -0.67897191 2.67925368
H 5.69240158 -0.04193660 -1.45437821
