34

C -0.606035070502 -0.308246538221 0.245064410172
N 0.508033212109 -1.084053649310 0.155947278106
C 1.789339674527 -0.687408194665 -0.346461351213
C 2.719966691494 -0.124585527255 0.526581574029
H 0.452407869760 -1.957364274306 0.687358501277
C 2.158581481464 -0.980673543788 -1.658602964848
C -1.661441388900 -0.743739558549 1.021929996788
N -2.807216433545 -2.065172843763 2.451757127647
C -2.993844784336 -0.188415301843 1.221635705539
C -1.589783878578 -1.965361815454 1.812672316697
C -3.646711728480 -0.996941362979 2.086845748568
C -0.663748133529 0.991365289128 -0.473827658214
C -1.055304928824 2.142126383928 0.221638565326
C -0.407041064240 1.083436631005 -1.846115844534
C -1.154076123727 3.365457830442 -0.434946840102
C -0.512483857496 2.306137847386 -2.502350842382
C -0.880605223632 3.450830231887 -1.798399125177
C 3.996518375791 0.197662286300 0.071675734305
C 3.435198360468 -0.659445561292 -2.112094776500
C 4.353827102385 -0.063584284150 -1.249557257626
H 2.430752346072 0.062645765101 1.551479882116
H 1.448343667060 -1.472457269452 -2.308433509401
H -3.039025596858 -2.820262812744 3.067106203382
O -0.632711108081 -2.787626796769 1.921070346067
H -1.260944853496 2.074528014756 1.280855881948
H -0.146188204521 0.197552145872 -2.404165971678
H -1.443596852532 4.249023641199 0.117466487304
H -0.312701130634 2.363283360112 -3.563638440438
H -0.958253053693 4.400728245172 -2.309870707516
H 4.711317478724 0.644796273297 0.748855224153
H 3.715386063326 -0.884053806395 -3.132185725594
H -3.392877286096 0.693805405463 0.753540416028
H -4.645470242998 -0.926720851189 2.478489550552
H 5.345646572958 0.184533900540 -1.602069738159
