30

N -0.18591637 0.33167636 -0.60899689
C 0.76828597 -0.69346558 -0.38650939
C 2.15759578 -0.53469668 -1.07271757
N 3.29133965 -0.45958722 -0.12829272
O 0.47844576 -1.71077059 0.24255581
H 2.34006460 -1.39155776 -1.74328759
H 2.22944352 0.34549267 -1.73152408
C -1.45983491 0.28919347 0.08676209
C -3.94676562 0.26009488 1.43317066
C -3.53521374 -0.85503614 0.69125478
C -3.11799071 1.38710501 1.50744832
C -2.30426492 -0.85065440 0.02082007
C -1.88168823 1.41088371 0.84620515
C -0.07545859 1.31730178 -1.71115864
C 4.58555457 -0.62544818 -0.81766870
C 3.27243604 0.80170303 0.63960817
H -4.17536372 -1.73690266 0.63112747
H -3.43226934 2.25959373 2.08326454
H -1.99439348 -1.72923826 -0.54727922
H -1.24715999 2.29665791 0.92042250
H -1.01647044 1.84922859 -1.85788164
H 0.69431543 2.05394076 -1.47930538
H 0.16537542 0.81891451 -2.65073900
H 4.61034496 -1.60725009 -1.31830713
H 4.75123521 0.17240483 -1.56173236
H 3.37055563 1.67869768 -0.02254544
H 2.33295240 0.87455614 1.21126845
H -4.90758964 0.24997504 1.95149886
H 5.40234147 -0.61306786 -0.07780170
H 4.09795227 0.79887234 1.36980457
