30

N -0.25173532 0.35927959 -0.72870357
C 0.88495563 -0.01895362 0.03212370
C 2.27306173 0.17937868 -0.66268566
N 3.33906591 -0.76366611 -0.23507295
O 0.77755484 -0.25659449 1.23821342
H 2.22626237 0.13313424 -1.76156245
H 2.63654069 1.19922354 -0.44311329
C -1.56349157 0.31103493 -0.11003195
C -4.13268002 0.24350424 1.06644388
C -3.32087444 -0.89825453 1.08305552
C -3.66425398 1.41819460 0.46370782
C -2.04520308 -0.87530971 0.50301286
C -2.39157500 1.46267352 -0.12286134
C -0.23184380 0.49140689 -2.20492980
C 4.49820112 -0.72149839 -1.15040147
C 3.78951205 -0.49055059 1.14852894
H -3.68085398 -1.81682830 1.54961267
H -4.29225731 2.31072660 0.44615477
H -1.42224454 -1.77121709 0.52996998
H -2.04199235 2.38806143 -0.58544085
H -1.24190791 0.59697312 -2.60304930
H 0.33712774 1.37380481 -2.49892121
H 0.20676866 -0.39690644 -2.66090752
H 4.17812930 -1.00884375 -2.16555538
H 4.95040319 0.28468571 -1.17724863
H 4.24950305 0.50809415 1.23654174
H 2.92243643 -0.54792118 1.82335235
H -5.12493480 0.21750097 1.52090043
H 5.25397204 -1.45410079 -0.82303484
H 4.51001032 -1.26208903 1.46504511
