30

N 0.074114363265 -0.382192667200 -0.245233736048
C 0.822288916831 -0.308446495694 0.917718984119
C 2.336486214977 -0.483824458701 0.872769038335
N 3.100456244049 0.471302609837 0.064944921457
O 0.292168360433 -0.018908094284 2.004856408762
H 2.640189786768 -0.348956157887 1.907310438915
H 2.581795578920 -1.533260317287 0.604685919898
C -1.338042202123 -0.089121024250 -0.191875623938
C -4.071653477925 0.455577802474 -0.235658657449
C -3.554665023910 -0.468979967219 0.671439467076
C -3.216901930030 1.110226366734 -1.120297110897
C -2.190898220325 -0.748412984562 0.692847426895
C -1.850149606903 0.841763449696 -1.094167101922
C 0.438938486393 -1.267959640478 -1.362015405830
C 4.527116766815 0.382812638718 0.359468025610
C 2.833517185320 0.640660552980 -1.353418053017
H -4.212634138047 -0.972159593200 1.366950766220
H -3.609430009030 1.834637433437 -1.821173684534
H -1.784776098544 -1.446341045194 1.408472890731
H -1.173329283503 1.358558375864 -1.761823578734
H -0.216819940304 -2.147207880089 -1.362870097939
H 0.326929150539 -0.748858394977 -2.317798069533
H 1.469179024261 -1.603618101946 -1.270208118668
H 4.690614250427 0.453848479183 1.435162559737
H 4.979450424182 -0.561139479595 0.003168461542
H 3.119272009527 -0.232303919205 -1.968120483055
H 1.784514599573 0.869762987486 -1.520306628929
H -5.131917895735 0.668470893974 -0.248138517058
H 5.052424650892 1.211732168374 -0.115866448424
H 3.416122357014 1.493230662432 -1.706439779339
