30

N -0.28145925 0.38990722 -0.69597484
C 0.85611862 -0.22485745 -0.11510417
C 2.20801212 0.04294047 -0.84876108
N 3.40824492 -0.57858003 -0.23572803
O 0.77998918 -0.85209524 0.94334406
H 2.16995757 -0.29392090 -1.89863984
H 2.40047339 1.13013463 -0.89776964
C -1.56666548 0.29056362 -0.02934433
C -4.08886266 0.13078490 1.23820135
C -3.36827859 -1.03695708 0.95500666
C -3.55131803 1.37753655 0.89264680
C -2.11666094 -0.96869880 0.32775658
C -2.30039087 1.46834531 0.26563515
C -0.29821972 0.88935912 -2.09255784
C 4.56692807 -0.53936753 -1.14705797
C 3.74792832 0.05053704 1.05730852
H -3.78163573 -2.01114664 1.22188615
H -4.10747665 2.29129759 1.10979815
H -1.56466726 -1.88704844 0.11983708
H -1.89518366 2.44936874 0.00843515
H -1.30694056 1.17334418 -2.39534522
H 0.34008515 1.76790610 -2.18916343
H 0.04258619 0.11409922 -2.77962150
H 4.32376716 -1.07917534 -2.07693436
H 4.85218486 0.49906762 -1.38701146
H 3.97369476 1.12408459 0.94194231
H 2.89771168 -0.07750240 1.74503758
H -5.06365183 0.06930175 1.72607117
H 5.42030054 -1.05695042 -0.67943810
H 4.61350871 -0.46380738 1.50541608
