30

N -0.07510236 -0.00079630 -0.36993367
C 0.93218922 0.61251046 0.42358961
C 2.38442493 0.76694792 -0.12484419
N 2.95469285 -0.22126424 -1.06586858
O 0.62049450 1.20354176 1.45782210
H 2.49002516 1.76497840 -0.58391042
H 3.06728213 0.81120540 0.74228369
C -1.44028664 -0.03469044 0.13508964
C -4.09125944 -0.05629773 1.12735817
C -3.04909784 -0.59628026 1.89164456
C -3.81257007 0.50554799 -0.12481497
C -1.73218213 -0.58554897 1.41179844
C -2.50216616 0.52963768 -0.62242724
C 0.15205744 -0.60027254 -1.70650439
C 4.19379282 0.27655513 -1.69762555
C 3.22363832 -1.50798312 -0.38347717
H -3.26002675 -1.03094043 2.87048473
H -4.61976467 0.93161080 -0.72369080
H -0.93141011 -1.00072767 2.02645134
H -2.30650567 0.99081530 -1.59270170
H -0.78457891 -0.77471742 -2.23492968
H 0.76141400 0.05674692 -2.32565807
H 0.65138090 -1.56261817 -1.60750294
H 3.97580868 1.20192906 -2.25571856
H 4.97506422 0.47889713 -0.94526096
H 3.99691644 -1.39482737 0.39525107
H 2.30169375 -1.88935120 0.08484758
H -5.11470635 -0.07028984 1.50696420
H 4.56408296 -0.46682890 -2.42262796
H 3.55650979 -2.25405236 -1.12355032
