18

C 1.19875817 -0.46427152 0.35885884
C -0.16806161 -0.00722181 0.08284530
C -2.04760589 0.23096460 -1.44955605
C -2.80231630 0.84070353 -0.42229524
C -0.73251647 -0.19068855 -1.20505013
C -2.22809775 1.03970206 0.85349638
C -0.91080203 0.63034867 1.10759757
O 1.27097298 -1.82608489 0.32444673
O 2.14697402 0.28333847 0.59063450
H -0.13517076 -0.66097616 -1.98854445
H -2.80728914 1.52076916 1.64361194
H -0.44522476 0.79340259 2.08140436
H -2.48728402 0.08578574 -2.43798760
H -3.82665386 1.16254766 -0.61598651
H 2.20739991 -2.07318674 0.49128970
O 4.04543509 -1.65412923 0.86121742
H 4.48785808 -1.80072935 1.69872630
H 3.70256434 -0.75136421 0.86553094
