18

C 1.58457826 -0.90167155 0.10776222
C 0.19745790 -0.42674971 0.09163289
C -1.93307818 -0.21015438 -1.06449942
C -2.37751629 0.68622068 -0.06624939
C -0.65791404 -0.78829532 -0.97807323
C -1.55065459 0.97472260 1.04277140
C -0.27520343 0.40022863 1.14084144
O 2.42088468 0.00503376 -0.48385446
O 1.96784141 -1.95803695 0.58233662
H -0.31222254 -1.50785928 -1.72295655
H -1.90927617 1.63505385 1.83424817
H 0.36277050 0.58772968 2.00685577
H -2.58763215 -0.46548428 -1.89962085
H -3.36794274 1.13808810 -0.14001685
H 3.30939529 -0.40409900 -0.40722151
O 1.60369285 2.92651401 -0.05920598
H 0.65026319 2.85862425 -0.11280537
H 1.96968606 2.07293491 -0.29875490
