18

C 1.76989242 0.31093855 -0.55687837
C 0.31532432 0.38211922 -0.38835928
C -1.91584326 -0.21570347 -1.15368616
C -2.45222350 0.24400633 0.07055128
C -0.53767739 -0.12514007 -1.39931976
C -1.60684993 0.84493694 1.03064956
C -0.22821579 0.94439670 0.79316807
O 2.26149748 -0.87408467 -0.08197172
O 2.47046757 1.18096052 -1.04700253
H -0.11115666 -0.44434951 -2.35226020
H -2.02788259 1.24695062 1.95385168
H 0.43427027 1.43703526 1.50762610
H -2.57565062 -0.63211189 -1.91688126
H -3.52295151 0.15912670 0.26303890
H 3.22935030 -0.80857083 -0.22920763
O 0.77234438 -1.81007424 2.44296456
H -0.10709324 -1.48247955 2.25322758
H 1.30133773 -1.69904664 1.65072918
