18

C 1.59185056 -0.28925289 -0.21291055
C 0.14218707 -0.04173736 -0.19230693
C -2.06305111 -0.33855434 -1.18656967
C -2.59431894 0.60367233 -0.27720224
C -0.70273994 -0.67674933 -1.13919372
C -1.76277585 1.17780858 0.71022926
C -0.40534543 0.83174437 0.77999154
O 2.14990409 0.09588030 -1.39326017
O 2.24778985 -0.78973559 0.69851162
H -0.28135512 -1.41608730 -1.82329688
H -2.18007842 1.87355781 1.44002523
H 0.23261395 1.22136533 1.57555947
H -2.71342652 -0.80995807 -1.92554266
H -3.65094523 0.87191661 -0.32338790
H 3.10797775 -0.08757178 -1.30726329
O 0.96089503 -0.89005941 3.20290264
H 0.48043264 -1.70202525 3.35932544
H 1.40932562 -0.97530402 2.35462880
