18

C 1.63914460 -0.71658798 0.17234153
C 0.22902247 -0.31902679 0.11697230
C -1.90861541 -0.34814218 -1.04409098
C -2.35102209 0.72797486 -0.24187064
C -0.63286149 -0.89717632 -0.84754250
C -1.53268469 1.21137414 0.80389789
C -0.25673480 0.66669374 1.01048125
O 2.35753825 -0.10745975 -0.81839252
O 2.12954505 -1.47955835 0.98802021
H -0.28994066 -1.75354681 -1.43103008
H -1.89830709 1.99917028 1.46468309
H 0.37061309 0.99570874 1.84092037
H -2.56461355 -0.76398882 -1.81059900
H -3.33759196 1.16309476 -0.40869709
H 3.27694795 -0.42044394 -0.68115540
O 0.82903924 2.37446215 -1.95908879
H -0.01789358 2.17260088 -1.56026416
H 1.42735466 1.65376140 -1.75434548
