18

C 1.63522790 -0.77896288 0.07923173
C 0.23407109 -0.34803493 0.06070518
C -1.93947675 -0.33639178 -1.03243742
C -2.36348377 0.69677401 -0.16619188
C -0.65316433 -0.88158102 -0.90599589
C -1.50808713 1.15065850 0.86311589
C -0.22103414 0.61061758 1.00002953
O 2.42327000 0.08495203 -0.63032363
O 2.06549388 -1.76944481 0.64676922
H -0.32243921 -1.70466504 -1.54259412
H -1.85331138 1.91264344 1.56400264
H 0.43912458 0.92415326 1.81117640
H -2.61843073 -0.72246927 -1.79462060
H -3.36118417 1.12526326 -0.27537574
H 3.32707686 -0.28660202 -0.54150124
O 1.40162532 2.99530502 -0.78146356
H 0.46317004 2.85096514 -0.65897816
H 1.82049195 2.13572952 -0.85530836
