18

C 1.82715132 0.51016380 -0.57405931
C 0.38414511 0.41010187 -0.33772900
C -1.80348691 -0.35529566 -1.07502183
C -2.30880901 -0.14546792 0.22818203
C -0.46802988 -0.04636385 -1.37261799
C -1.48348624 0.42929333 1.22120190
C -0.14723844 0.74400249 0.93259527
O 2.46121456 -0.64655987 -0.21574220
O 2.40662792 1.48321390 -1.02721730
H -0.07317009 -0.15883640 -2.38412697
H -1.88985666 0.64615505 2.21054158
H 0.49191645 1.23101485 1.67161191
H -2.45658234 -0.74304227 -1.85863309
H -3.34511072 -0.39775775 0.45854665
H 3.40750277 -0.47508760 -0.40885389
O 0.71133004 -2.58741064 1.49470120
H -0.11450889 -2.11058640 1.40752616
H 1.36933101 -2.12862692 0.96933489
