18

C 1.51808691 -0.45904861 -0.15409593
C 0.08546045 -0.12601800 -0.17913936
C -2.04359453 -0.05338805 -1.36334509
C -2.59767029 0.70866335 -0.31045504
C -0.71051058 -0.48397073 -1.29795113
C -1.82330064 0.99493172 0.83602083
C -0.49546114 0.55153243 0.92153478
O 2.18619204 0.11737788 -1.19057254
O 2.07530250 -1.17414001 0.67635061
H -0.27258897 -1.08534709 -2.09716479
H -2.26371837 1.54198896 1.67123159
H 0.09311989 0.71661900 1.82614608
H -2.65452521 -0.31186622 -2.23007342
H -3.63035354 1.05586102 -0.37240550
H 3.12376884 -0.14175803 -1.07749030
O 0.66032609 -1.63891534 3.06822964
H 0.20808495 -2.48026035 3.11499746
H 1.13651161 -1.60946192 2.23137209
