18

C 1.83926575 0.32333138 -0.26430816
C 0.37692700 0.31579669 -0.17270423
C -1.76731765 -0.40147565 -1.06989731
C -2.38725740 -0.04799196 0.15006360
C -0.39266799 -0.18894746 -1.24975996
C -1.63362381 0.57524711 1.17072083
C -0.25778808 0.78953218 1.00124484
O 2.36443064 -0.84377048 0.21716224
O 2.51743155 1.23376341 -0.71058028
H 0.09566913 -0.41509010 -2.19962295
H -2.12376811 0.90469669 2.08841174
H 0.33250678 1.30663995 1.76019140
H -2.36102285 -0.82569622 -1.88136018
H -3.45423869 -0.22739623 0.29143158
H 3.33209203 -0.74291313 0.09229419
O 0.40892763 -3.25202674 0.09093922
H -0.41018939 -2.76078050 0.02404432
H 1.11575347 -2.62011892 0.23491912
