18

C 1.20234151 0.39226219 -0.67909238
C -0.19757451 0.24227842 -0.26566972
C -2.44491982 -0.60163125 -0.68542295
C -2.88788526 -0.01070022 0.51936420
C -1.10415962 -0.48310442 -1.08004529
C -1.98052716 0.71092483 1.32739934
C -0.63949305 0.84573718 0.93831957
O 1.85377185 -0.80535433 -0.63082833
O 1.71418853 1.45617738 -1.02242413
H -0.74457006 -0.94096994 -2.00373126
H -2.32297246 1.17032529 2.25627802
H 0.07102660 1.40877474 1.54676285
H -3.14582932 -1.15679836 -1.31121339
H -3.93083457 -0.11048474 0.82488805
H 2.78755003 -0.63850612 -0.88790405
O 4.22671000 0.49257711 -1.46982356
H 4.60460778 0.48646254 -2.35069477
H 3.53369954 1.16482971 -1.45297219
