18

C 1.64508025 -0.84302652 0.15644392
C 0.25015018 -0.39660044 0.09822421
C -1.90558564 -0.41647083 -1.02832614
C -2.31228528 0.69509135 -0.25597486
C -0.63850065 -0.98599380 -0.83383936
C -1.46420768 1.20032855 0.75556012
C -0.19595880 0.63662041 0.95931820
O 2.44205041 -0.06045899 -0.63211041
O 2.06275183 -1.78161729 0.81426326
H -0.32300384 -1.86926257 -1.39247015
H -1.80125134 2.02107729 1.39096670
H 0.45657231 0.98703509 1.76142796
H -2.58321686 -0.84380804 -1.76948890
H -3.29328216 1.14380304 -0.42081462
H 3.34142292 -0.43384946 -0.51421936
O 1.22826276 2.69861875 -1.37602730
H 0.32852163 2.51830339 -1.10262386
H 1.73141996 1.88912005 -1.27006942
