18

C 1.83312119 0.58862565 -0.44411036
C 0.38374239 0.45952920 -0.26255545
C -1.74182603 -0.45073402 -1.01991030
C -2.32348641 -0.10870892 0.22174215
C -0.40018360 -0.13615285 -1.28107036
C -1.56681073 0.59582971 1.18539072
C -0.22201929 0.90799051 0.93686946
O 2.49868475 -0.41206076 0.20788893
O 2.39263433 1.45726515 -1.09248670
H 0.05190844 -0.35117688 -2.25100302
H -2.03132778 0.91045771 2.12141814
H 0.36722566 1.48274612 1.65381672
H -2.34110959 -0.94496776 -1.78638838
H -3.36515726 -0.36228424 0.42474275
H 3.44366529 -0.25139046 -0.00066686
O 0.72564268 -2.94669130 0.42469027
H -0.12621325 -2.52153431 0.32156346
H 1.39044921 -2.25783253 0.48030882
