18

C 1.74588859 -0.59106452 -0.19196486
C 0.36087623 -0.09894798 -0.17996996
C -1.88624508 -0.11059010 -1.12022688
C -2.34846093 0.63243770 -0.01043451
C -0.53157573 -0.45967059 -1.22174803
C -1.43498158 1.07228469 0.97375172
C -0.07509363 0.74363923 0.87278610
O 1.80008038 -1.94462597 -0.05916175
O 2.75285714 0.10468424 -0.31190679
H -0.15322336 -1.00977032 -2.08570251
H -1.78114060 1.69296119 1.80200416
H 0.65172055 1.12900208 1.59041598
H -2.58291781 -0.40605482 -1.90661217
H -3.40533633 0.89103019 0.07218470
H 2.75194812 -2.17432461 -0.06727939
O 2.25728742 2.87274726 -0.22572814
H 2.48085110 1.94087767 -0.32406987
H 2.86640553 3.37429468 -0.76609778
