18

C 1.80920489 0.15143331 -0.52331896
C 0.36075510 0.19632018 -0.29795968
C -1.90025320 -0.21175769 -1.10122213
C -2.40186072 0.04571015 0.19463889
C -0.52466279 -0.11555125 -1.35866339
C -1.52196279 0.44562976 1.22559087
C -0.14450477 0.54315287 0.97977213
O 2.33137855 -1.05424073 -0.13963933
O 2.48264379 1.05520022 -0.99014708
H -0.12400871 -0.28169596 -2.36045136
H -1.91406441 0.68869775 2.21471395
H 0.54609905 0.87103169 1.75927219
H -2.58501664 -0.47589309 -1.90887941
H -3.47140733 -0.04197230 0.39298854
H 3.28974514 -0.96985133 -0.33328350
O 1.12235779 -2.18182907 2.42667864
H 0.18309279 -2.04683882 2.30039573
H 1.55759424 -1.99474568 1.59270393
