18

C 1.82213634 0.44067474 -0.45502869
C 0.36774660 0.40645218 -0.28025451
C -1.81166549 -0.34611781 -1.05474713
C -2.36089869 -0.03298706 0.20943701
C -0.45584989 -0.09877141 -1.31598415
C -1.56020090 0.59438390 1.19057089
C -0.20439611 0.84920518 0.93739643
O 2.38590121 -0.74493733 -0.07459076
O 2.46389466 1.38771035 -0.87830906
H -0.02369809 -0.29786003 -2.29848429
H -1.99862619 0.89627385 2.14330617
H 0.41867949 1.37243202 1.66507622
H -2.44467204 -0.76995812 -1.83620985
H -3.41115029 -0.24486370 0.41594302
H 3.34703548 -0.61742042 -0.22243497
O 0.31792618 -2.71337259 1.23715792
H -0.45451416 -2.16445283 1.09968526
H 1.07129189 -2.25748093 0.85771048
