18

C 1.57605647 -0.81461206 0.12987573
C 0.16954046 -0.40150430 0.11007201
C -1.98039385 -0.33747674 -1.02820710
C -2.44140651 0.61557506 -0.09207686
C -0.68770965 -0.87036058 -0.91531922
C -1.61377467 1.00443217 0.98535889
C -0.32057824 0.47575813 1.10899100
O 2.35384149 0.05896773 -0.57897838
O 2.01833723 -1.79866176 0.69899702
H -0.32922331 -1.63494849 -1.60697654
H -1.98642074 1.70566476 1.73396812
H 0.31740755 0.73573257 1.95595880
H -2.63569038 -0.67241786 -1.83403256
H -3.44546283 1.03231945 -0.18719357
H 3.26305563 -0.29744549 -0.48476071
O 1.27361240 2.94815062 -0.64342540
H 0.34041130 2.76589554 -0.53127351
H 1.72352766 2.10773125 -0.74778774
