18

C 1.57822361 -0.81282294 0.17155063
C 0.16496829 -0.42800337 0.13109085
C -2.03444148 -0.64749245 -0.88468645
C -2.44840899 0.53275005 -0.22628700
C -0.74104073 -1.15154033 -0.68274330
C -1.57682033 1.17912649 0.67916542
C -0.28146289 0.68362397 0.88724514
O 2.27635472 -0.21058385 -0.83764254
O 2.08635184 -1.56230867 0.98883977
H -0.41932081 -2.08531568 -1.14781621
H -1.91551010 2.05728345 1.23149401
H 0.39082112 1.14462273 1.61344539
H -2.72660375 -1.17897153 -1.54011199
H -3.45157111 0.92804736 -0.39369994
H 3.19905528 -0.51904028 -0.71256355
O 0.74766826 2.17892586 -2.13816867
H -0.09096286 2.04188659 -1.69663767
H 1.33782989 1.47261259 -1.86928388
