18

C 1.83451468 0.35927783 -0.54273382
C 0.38814070 0.31058544 -0.31028035
C -1.83237536 -0.32091153 -1.07649207
C -2.33154676 -0.12889277 0.23198927
C -0.48142999 -0.07166878 -1.36064959
C -1.48223431 0.37146389 1.24494047
C -0.13017742 0.62422250 0.97066699
O 2.43057083 -0.81028468 -0.15954031
O 2.44694340 1.30495596 -1.01010584
H -0.08832288 -0.17426573 -2.37399822
H -1.87994210 0.57663570 2.24032100
H 0.53161547 1.04651987 1.72921144
H -2.50120077 -0.64995415 -1.87372553
H -3.37971726 -0.33766643 0.45266757
H 3.38392863 -0.66638378 -0.34037222
O 0.81108476 -2.54031678 1.83388502
H -0.04252720 -2.12395913 1.71314457
H 1.41780560 -2.14655744 1.20426160
