18

C 1.72255921 0.22506839 -0.50780938
C 0.26902156 0.32888029 -0.34935278
C -1.96773353 -0.17033216 -1.16614228
C -2.50511932 0.23485484 0.07667686
C -0.58582819 -0.09761911 -1.39510155
C -1.65541451 0.76187045 1.07539850
C -0.27243830 0.83912794 0.85644558
O 2.18228943 -0.97368387 -0.03655463
O 2.44671191 1.08104582 -0.98830810
H -0.15791989 -0.37000445 -2.36177083
H -2.07568964 1.12388139 2.01528123
H 0.39421359 1.27506444 1.60318374
H -2.62945261 -0.52812188 -1.95687164
H -3.57945154 0.16636524 0.25479151
H 3.15228707 -0.93184303 -0.17795883
O 0.49201603 -2.13214031 2.27704982
H -0.35499906 -1.73974864 2.06400534
H 1.09388779 -1.93375536 1.55727743
