18

C 1.80674341 0.23089097 -0.26191865
C 0.34449130 0.28973841 -0.18054659
C -1.82276295 -0.29261796 -1.11987703
C -2.43420365 0.02274756 0.11473904
C -0.43952126 -0.12811424 -1.28407807
C -1.66199496 0.56935761 1.16490722
C -0.27770164 0.73574266 1.01065505
O 2.26737840 -0.99724860 0.12365815
O 2.53489251 1.13981432 -0.62493505
H 0.04408980 -0.32708271 -2.24225448
H -2.14319897 0.87662246 2.09483648
H 0.32827201 1.19419087 1.79440178
H -2.42816082 -0.65176393 -1.95376603
H -3.50756569 -0.12372134 0.24588403
H 3.24094542 -0.93452368 0.02205475
O 0.07044250 -3.20360349 0.24128027
H -0.68494283 -2.62052367 0.16061822
H 0.85792740 -2.65710526 0.26753090
