18

C 1.76106220 0.24013278 -0.45297416
C 0.30586004 0.32844043 -0.29944557
C -1.91989367 -0.16881246 -1.14626678
C -2.46703467 0.16906179 0.11230356
C -0.53878139 -0.06134485 -1.36736674
C -1.62987946 0.67110752 1.13428911
C -0.24790727 0.78377789 0.92276330
O 2.22886422 -0.96255538 -0.00102979
O 2.47925642 1.11012053 -0.91686295
H -0.10365941 -0.27950627 -2.34448670
H -2.05892308 0.98760027 2.08642583
H 0.40764893 1.20625787 1.68665523
H -2.57354649 -0.50087601 -1.95468656
H -3.54013781 0.07116384 0.28453607
H 3.19886604 -0.91282046 -0.13876656
O 0.29546600 -2.46386117 1.90932239
H -0.48988359 -1.94474757 1.73436942
H 0.98775298 -2.15033874 1.32441088
