18

C 1.74693081 0.11349971 -0.28799257
C 0.29013215 0.24375206 -0.19384574
C -1.90603122 -0.14988642 -1.16302888
C -2.50106101 0.13637832 0.08617541
C -0.51475008 -0.06665819 -1.31725040
C -1.69948389 0.56708707 1.16751849
C -0.30689260 0.65383923 1.02349324
O 2.16817118 -1.06767851 0.25605228
O 2.50093247 0.93160560 -0.78808022
H -0.04182429 -0.24553430 -2.28465927
H -2.16442957 0.84727344 2.11414710
H 0.32393616 1.02278367 1.83455268
H -2.52999567 -0.42215322 -2.01577487
H -3.58254710 0.05592037 0.20602736
H 3.13955390 -1.06565422 0.11919675
O -0.13249068 -3.18647967 0.28084187
H -0.86148128 -2.57894898 0.15215010
H 0.66646071 -2.66634594 0.38366666
