18

C 1.62859688 -1.01358226 0.19043870
C 0.29740435 -0.41454437 0.04419678
C -1.85501286 -0.35663336 -1.08887770
C -2.13444957 0.88887783 -0.48189935
C -0.65605270 -1.02699147 -0.80510150
C -1.22689300 1.43899641 0.45156400
C -0.02535473 0.77649950 0.74168344
O 2.58085672 -0.26240446 -0.44296773
O 1.87824815 -2.04595237 0.79082393
H -0.44298567 -2.00938134 -1.23045837
H -1.46581506 2.37465930 0.96025239
H 0.67059892 1.16849173 1.48590377
H -2.57989506 -0.80868405 -1.76827458
H -3.06375249 1.41176158 -0.71293224
H 3.41742650 -0.74774690 -0.27824061
O 1.84321766 2.56652800 -1.44640533
H 2.20967533 1.70793349 -1.22707966
H 0.89312663 2.51108273 -1.34238592
