18

C 1.78213871 0.37512159 -0.35908613
C 0.32222620 0.41737374 -0.23769483
C -1.85983477 -0.17663456 -1.13265166
C -2.44407030 0.10788803 0.12256585
C -0.48406560 0.01269308 -1.32955504
C -1.65265530 0.64286594 1.16425675
C -0.27550507 0.83292500 0.97749696
O 2.28815775 -0.75187539 0.22622836
O 2.47253113 1.21591701 -0.91077538
H -0.02322587 -0.15482264 -2.30489838
H -2.11420037 0.92420414 2.11237952
H 0.34366709 1.28598110 1.75385882
H -2.48198377 -0.52766862 -1.95769921
H -3.51211583 -0.05325451 0.27702830
H 3.25459691 -0.69538516 0.06851913
O 0.11393434 -2.97171385 0.51111201
H -0.64616934 -2.42162223 0.31943902
H 0.88551411 -2.40308265 0.53971592
