18

C 1.46599276 -0.98478329 -0.10335872
C 0.09402585 -0.46139911 -0.07067346
C -2.25514036 -0.69518380 -0.67101056
C -2.51980698 0.57728436 -0.11683173
C -0.95716531 -1.22555200 -0.63619611
C -1.47807130 1.31324201 0.49041946
C -0.17560915 0.79452422 0.52979319
O 2.26597635 -0.25587642 -0.94711638
O 1.87082026 -1.95128851 0.52254815
H -0.74203298 -2.21753993 -1.03826957
H -1.68590794 2.28686027 0.93749759
H 0.63477363 1.34756051 1.00984812
H -3.06470471 -1.27405194 -1.11882068
H -3.53085017 0.98650147 -0.14677342
H 3.12753610 -0.72509221 -0.90560313
O 2.65766081 2.55083120 -0.04017921
H 2.51968341 1.75670653 -0.56156695
H 2.36794972 3.30005662 -0.56051660
