18

C 1.87492495 0.40996557 -0.25769341
C 0.41550760 0.32344076 -0.14526214
C -1.69191433 -0.60996690 -0.92645234
C -2.32998666 -0.12815000 0.23891754
C -0.32860985 -0.35890954 -1.13965030
C -1.60573123 0.65216222 1.16856155
C -0.24073877 0.90574747 0.96652861
O 2.47281284 -0.70795333 0.25487248
O 2.49551409 1.34154775 -0.74281535
H 0.17063472 -0.68978803 -2.05254195
H -2.11105076 1.07161330 2.04016124
H 0.32467416 1.53789394 1.65393693
H -2.26378159 -1.16568892 -1.67153712
H -3.38848869 -0.33412872 0.40631837
H 3.43156935 -0.55270749 0.11675345
O 0.68414166 -3.22953821 0.39506434
H -0.16746055 -2.79837975 0.32011301
H 1.35311305 -2.54436012 0.44791510
