18

C 1.79314139 0.46774567 -0.55804553
C 0.34186537 0.44909925 -0.35575984
C -1.86490973 -0.23390222 -1.11688005
C -2.38915911 0.05746449 0.16292967
C -0.50791588 -0.00925109 -1.39177587
C -1.55883055 0.63267562 1.15140734
C -0.20135306 0.86401700 0.88512085
O 2.35794979 -0.70828341 -0.14950805
O 2.43268355 1.39663535 -1.02275957
H -0.09458315 -0.18901492 -2.38597402
H -1.97622491 0.91312875 2.11976037
H 0.44506901 1.34664571 1.62061651
H -2.51849417 -0.62113385 -1.90035374
H -3.44204220 -0.13221208 0.37787337
H 3.31742484 -0.58717963 -0.31354956
O 0.48677857 -2.46320697 1.62920423
H -0.31898551 -1.96124270 1.50394597
H 1.16652576 -2.06307499 1.08398791
