18

C 1.63605430 -0.29903262 -0.31508910
C 0.18419586 -0.07332352 -0.22296131
C -2.05716686 -0.35141684 -1.14021009
C -2.55801870 0.55287550 -0.17697452
C -0.69380228 -0.68031937 -1.15873875
C -1.69475438 1.08561699 0.80623598
C -0.33195332 0.75417877 0.80542335
O 2.12542535 0.06416892 -1.53261950
O 2.34848183 -0.76745655 0.57042415
H -0.29574468 -1.39091883 -1.88601117
H -2.08917072 1.74334912 1.58267001
H 0.33367913 1.12095661 1.58936246
H -2.73305781 -0.79909210 -1.87097749
H -3.61565925 0.82119228 -0.17778475
H 3.08915747 -0.10514737 -1.49314468
O 1.33942001 -0.70196952 3.20206583
H 0.79942557 -1.45382486 3.44244668
H 1.68242849 -0.86092659 2.31612290
