18

C 1.86014381 0.50467268 -0.49542964
C 0.41383487 0.39028363 -0.28924254
C -1.73721709 -0.46364297 -1.03619597
C -2.26970352 -0.22864232 0.25180647
C -0.40739836 -0.12166286 -1.32352723
C -1.48242604 0.41484365 1.23359375
C -0.15180619 0.76076611 0.95549405
O 2.50122256 -0.63288809 -0.09153858
O 2.43601882 1.47366467 -0.96172605
H 0.00729344 -0.25158145 -2.32502862
H -1.91306961 0.65921368 2.20604551
H 0.45659142 1.30024030 1.68389373
H -2.36546008 -0.89741891 -1.81607712
H -3.29939812 -0.51138786 0.47658680
H 3.44942925 -0.45521979 -0.26867866
O 0.56012186 -2.78214724 1.11241338
H -0.24750203 -2.28272887 0.98785054
H 1.28445502 -2.25356437 0.77295017
