18

C 1.60427079 -0.96726854 0.17160787
C 0.25632001 -0.40071138 0.06239454
C -1.90255701 -0.34512026 -1.05754086
C -2.20487017 0.86924810 -0.40059275
C -0.68822185 -1.00050697 -0.80557443
C -1.30594314 1.39960537 0.55231433
C -0.08879163 0.75248029 0.81029451
O 2.50429045 -0.23502975 -0.55252523
O 1.90674525 -1.95870113 0.81498285
H -0.45637651 -1.96020685 -1.27128053
H -1.56302879 2.30784401 1.10022248
H 0.60179200 1.12800912 1.56793119
H -2.62093443 -0.78451305 -1.75189918
H -3.14523064 1.38223506 -0.60803811
H 3.35995863 -0.69208438 -0.40663463
O 1.57142623 2.52745513 -1.60449120
H 1.99905936 1.69763378 -1.38460112
H 0.64103143 2.43854144 -1.39632973
