18

C 1.55576191 -0.86239369 0.13401692
C 0.15745300 -0.42192251 0.11799777
C -1.96259922 -0.21511804 -1.05909740
C -2.43756658 0.64371548 -0.04218672
C -0.67748426 -0.77043621 -0.97185254
C -1.63225686 0.91314291 1.08740756
C -0.34679716 0.36101075 1.18603014
O 2.37326920 0.08119192 -0.42467953
O 1.96091793 -1.92213270 0.58221857
H -0.30831749 -1.46153656 -1.73196955
H -2.01489191 1.54086833 1.89391094
H 0.27449416 0.53325239 2.06702227
H -2.60088449 -0.45929478 -1.90997325
H -3.43519678 1.07921038 -0.11790664
H 3.27168841 -0.30663434 -0.35433803
O 1.29812874 2.97089435 -0.26992913
H 0.36287092 2.77818088 -0.20062502
H 1.75654047 2.14080144 -0.41285638
