18

C 1.61714824 -0.78400844 0.10450521
C 0.21788960 -0.34599805 0.08418201
C -1.93778298 -0.26068990 -1.04242140
C -2.38899054 0.68749397 -0.09668143
C -0.64665337 -0.79953576 -0.94223955
C -1.55089995 1.06994597 0.97478153
C -0.25766772 0.53819907 1.08419325
O 2.40927610 0.07257831 -0.60978328
O 2.04359368 -1.77324163 0.67691389
H -0.29499911 -1.55754991 -1.64472538
H -1.91332655 1.77175475 1.72795304
H 0.39154697 0.80246330 1.92123724
H -2.59925866 -0.58616692 -1.84711375
H -3.39233173 1.10792419 -0.18187489
H 3.31129359 -0.30277619 -0.51933602
O 1.50924783 2.99234906 -0.38505281
H 0.55740117 2.88943297 -0.37875443
H 1.89345343 2.13673522 -0.58554324
