18

C 1.54693671 -0.93884622 0.16067071
C 0.15233146 -0.48845670 0.12503217
C -1.98836663 -0.38676684 -1.02730727
C -2.42644221 0.59954674 -0.11468646
C -0.71198011 -0.95379602 -0.89621903
C -1.59567515 0.98361119 0.96234511
C -0.31823802 0.42201229 1.10373476
O 2.35002656 -0.10466616 -0.56707403
O 1.96013085 -1.92020510 0.75594852
H -0.37161276 -1.74215298 -1.57046109
H -1.95235215 1.70920834 1.69541912
H 0.32308372 0.68308062 1.94797641
H -2.64876948 -0.71996590 -1.82976876
H -3.41612640 1.04532886 -0.22667873
H 3.24845555 -0.48574024 -0.46627403
O 1.31536317 2.81108300 -0.67169969
H 0.38141772 2.64902527 -0.53701094
H 1.74694716 1.96049984 -0.77075678
