18

C 1.78328798 0.19462923 -0.39722941
C 0.32723969 0.27933594 -0.25287459
C -1.88971997 -0.22483825 -1.11708503
C -2.44441589 0.08037166 0.14645504
C -0.50970325 -0.09522797 -1.33209770
C -1.61660265 0.57540163 1.17949056
C -0.23569297 0.70980389 0.97387866
O 2.24911949 -1.00888220 0.05413035
O 2.50280369 1.06729093 -0.85399235
H -0.07010594 -0.28615506 -2.31280746
H -2.05243936 0.86967744 2.13571146
H 0.41313732 1.12980062 1.74494332
H -2.53634049 -0.54854312 -1.93444069
H -3.51646905 -0.03577269 0.31387103
H 3.21978591 -0.95981768 -0.07827241
O 0.15727701 -2.68851794 1.64333049
H -0.59383804 -2.11565503 1.48634292
H 0.90780651 -2.32010141 1.17383581
