18

C 1.20289716 -0.49054417 0.19946297
C -0.17288242 -0.01462924 0.01268529
C -2.13446837 0.27599036 -1.40349439
C -2.80700132 0.91068555 -0.33526132
C -0.82124200 -0.18775626 -1.23676810
C -2.15383979 1.08860990 0.90492461
C -0.83779242 0.63666025 1.08185439
O 1.25678836 -1.85283027 0.14763890
O 2.17243169 0.24395918 0.37945813
H -0.28911535 -0.68127075 -2.05255480
H -2.67127091 1.58512077 1.72774983
H -0.31440796 0.77856371 2.02926247
H -2.63728973 0.14366733 -2.36312037
H -3.82980403 1.26674587 -0.46880693
H 2.19898617 -2.11066938 0.25606870
O 4.05462232 -1.72440599 0.53706463
H 4.51927777 -1.89475632 1.35793295
H 3.73305084 -0.81423055 0.56614304
