18

C 1.58550923 0.27143511 -0.86349430
C 0.15744070 0.25888548 -0.52286384
C -2.16806755 0.10027147 -1.23059072
C -2.58193077 0.20735417 0.11619203
C -0.80446066 0.13920005 -1.55672752
C -1.62010076 0.35322812 1.14079371
C -0.25283571 0.37790505 0.82924047
O 2.20457279 -0.89274998 -0.48501947
O 2.17411573 1.18355986 -1.42104126
H -0.47048136 0.07746018 -2.59445221
H -1.93816270 0.44358300 2.18093185
H 0.49996863 0.47950692 1.61430578
H -2.91097478 -0.00416104 -2.02322955
H -3.64423846 0.18140259 0.36466596
H 3.12961784 -0.76719178 -0.78957502
O 2.04958252 -1.50663689 2.41670936
H 2.07226489 -1.51976296 1.45724297
H 1.48712041 -2.22437933 2.70715177
