18

C 1.72133519 0.09190995 -0.43648815
C 0.26804882 0.23017288 -0.29874936
C -1.96705819 -0.13721204 -1.18924493
C -2.51946824 0.25234187 0.05194624
C -0.57722476 -0.12514333 -1.37864247
C -1.67324051 0.69178388 1.09514671
C -0.28232803 0.70747059 0.91670701
O 2.15500467 -1.09350426 0.09189303
O 2.46648370 0.91062484 -0.94886810
H -0.13599945 -0.38948253 -2.34160316
H -2.10127856 1.03273262 2.03937143
H 0.38390081 1.07030343 1.70209921
H -2.62303406 -0.43559139 -2.00902380
H -3.60078034 0.23558554 0.19706755
H 3.12594355 -1.07686754 -0.04935490
O 0.60139113 -2.08381521 2.54200565
H -0.29493874 -1.83169764 2.31901770
H 1.14837300 -1.92681166 1.76991036
