18

C 1.84676408 0.31312364 -0.32829461
C 0.38735328 0.29438320 -0.19632158
C -1.77003703 -0.45753753 -1.03019771
C -2.35926969 -0.11660988 0.20824114
C -0.40524218 -0.22188563 -1.25048358
C -1.58732816 0.52199158 1.20518876
C -0.22170370 0.76265228 0.99376945
O 2.39973156 -0.80980493 0.22073923
O 2.50027714 1.19613391 -0.85863932
H 0.05812295 -0.43821653 -2.21487319
H -2.05575957 0.84407844 2.13683647
H 0.37960835 1.29513562 1.73297246
H -2.37968657 -0.89107412 -1.82455556
H -3.41777058 -0.31602297 0.38173003
H 3.36256428 -0.70998759 0.06234343
O 0.28887963 -3.08342140 0.68959109
H -0.48514196 -2.55331171 0.49738702
H 1.05376817 -2.50682638 0.64775647
