18

C 1.83757579 0.40922327 -0.39321392
C 0.38065542 0.37740996 -0.24147794
C -1.77920357 -0.39988879 -1.04374363
C -2.34759877 -0.09195610 0.21319580
C -0.42452330 -0.13197912 -1.28941928
C -1.56879356 0.55294059 1.20076861
C -0.21350160 0.82583167 0.96334243
O 2.40064451 -0.75033163 0.06160253
O 2.48148204 1.33289551 -0.86231691
H 0.02157405 -0.31738524 -2.26831849
H -2.02484642 0.85618394 2.14468462
H 0.39171431 1.36805130 1.69231793
H -2.39736285 -0.83176226 -1.83241717
H -3.39714568 -0.31804013 0.40770680
H 3.36225548 -0.63245736 -0.09196402
O 0.28782731 -2.89485045 0.93683474
H -0.48123173 -2.35634682 0.74810400
H 1.06560858 -2.37473834 0.72750386
