18

C 1.64768930 -0.80669260 0.05774561
C 0.25981227 -0.33341075 0.02497609
C -1.94203436 -0.34788915 -1.01294315
C -2.34151305 0.71361342 -0.16969175
C -0.65167868 -0.88798934 -0.90718906
C -1.45122921 1.21257951 0.80747492
C -0.15897169 0.68003232 0.92291095
O 2.45071362 -0.03446744 -0.73744953
O 2.05870394 -1.75628514 0.70381501
H -0.33691982 -1.72494889 -1.53363089
H -1.77146128 2.00786457 1.48303463
H 0.53269098 1.04026596 1.68710827
H -2.64187616 -0.75776217 -1.74316216
H -3.34404405 1.13485072 -0.26025548
H 3.34327865 -0.42681961 -0.62577502
O 1.82975207 2.93641458 -0.52450919
H 0.87582131 2.96620824 -0.59833919
H 2.11020617 2.04334577 -0.73388008
