18

C 1.79989319 0.27404005 -0.36163236
C 0.34151437 0.32985949 -0.22816006
C -1.85527550 -0.24234020 -1.10193990
C -2.42719735 0.06605511 0.15302532
C -0.47741412 -0.08017531 -1.30846249
C -1.62055787 0.59823739 1.18446354
C -0.24156460 0.76329540 0.98813878
O 2.30113187 -0.84947710 0.23413661
O 2.49267827 1.10190514 -0.92973753
H -0.02474395 -0.27311552 -2.28300374
H -2.07156356 0.89545534 2.13269832
H 0.39060480 1.20967101 1.75818359
H -2.48718725 -0.59368611 -1.91939358
H -3.49694361 -0.07576611 0.31487637
H 3.26715643 -0.80210809 0.07088621
O 0.04856659 -2.92846882 0.89181311
H -0.69451600 -2.35453107 0.70297049
H 0.85054831 -2.41605061 0.77432733
