18

C 1.58614727 -0.92833458 0.27946899
C 0.19342667 -0.48149988 0.18747318
C -1.95407471 -0.55432467 -0.95239432
C -2.35102953 0.61491953 -0.26486908
C -0.69665793 -1.12537562 -0.70645115
C -1.50539789 1.17706579 0.71789528
C -0.24742679 0.61189074 0.97307205
O 2.36817100 -0.27730077 -0.63312439
O 2.01418066 -1.76232809 1.05995058
H -0.38973266 -2.05047925 -1.19792262
H -1.83615389 2.04389671 1.29250861
H 0.40067438 1.00667558 1.75774985
H -2.63162406 -1.02450808 -1.66721953
H -3.32365000 1.06487889 -0.47026512
H 3.26928926 -0.63205994 -0.47759257
O 1.00596937 2.28160586 -1.80804116
H 0.13575474 2.12634755 -1.43970616
H 1.55726412 1.53173025 -1.57734243
