18

C 1.66141327 -0.39065916 0.08194006
C 0.22503928 -0.07197799 0.05063886
C -1.91577812 -0.15583261 -1.10714204
C -2.56091305 0.31982060 0.05628823
C -0.52294882 -0.31988129 -1.12710008
C -1.79840141 0.65970893 1.19615448
C -0.40713177 0.48294671 1.19363710
O 1.95931700 -1.27262967 1.07534163
O 2.51771628 0.07152590 -0.66962771
H -0.00847309 -0.63049561 -2.03862439
H -2.29148372 1.06738771 2.08032821
H 0.19782086 0.75988728 2.05927962
H -2.49734490 -0.37420982 -2.00428304
H -3.64464984 0.44692246 0.06634355
H 2.92246775 -1.43491442 1.00457819
O 1.61604377 1.26649373 -3.05497896
H 1.67109230 2.22084672 -3.08225217
H 1.97134420 0.97786053 -2.20733153
