18

C 1.74541605 0.09396335 -0.32221854
C 0.29238057 0.25772960 -0.22070115
C -1.92276430 -0.13608804 -1.14486221
C -2.49529477 0.19623617 0.10388524
C -0.53260293 -0.07450078 -1.32284537
C -1.67277334 0.65544852 1.15739734
C -0.28178834 0.72134741 0.98872114
O 2.12914930 -1.14256099 0.11627577
O 2.52684106 0.93373034 -0.73700996
H -0.07667639 -0.28569338 -2.29190004
H -2.11973450 0.97406745 2.10056886
H 0.36543967 1.11280968 1.77568356
H -2.56303863 -0.42760764 -1.97909163
H -3.57543355 0.13016862 0.24377794
H 3.10459143 -1.14579581 0.01242710
O -0.13981136 -2.73350447 1.56118523
H -0.84221375 -2.10404907 1.39603968
H 0.65344379 -2.40290099 1.13585703
