12
0 1 C5H5NO
O                    -1.635971851212     0.377849984698     1.057461667951
C                    -0.531471851212     0.069349984698     0.563661667951
N                     0.543628148788    -0.544050015302     1.240861667951
C                    -0.112971851212     0.284249984698    -0.848638332049
C                     1.242228148788    -0.247350015302    -0.881638332049
C                     1.623928148788    -0.736650015302     0.358361667951
H                     0.545028148788    -0.815750015302     2.245761667951
C                    -0.888371851212     0.784749984698    -1.782038332049
H                     1.842328148788    -0.258550015302    -1.721138332049
H                     2.533828148788    -1.164050015302     0.591861667951
H                    -0.528771851212     0.905149984698    -2.741838332049
H                    -1.857571851212     1.057849984698    -1.556138332049
