29
0 1 C13H14N2
C                     2.307559424336     1.091830931005     0.465806993165
C                     1.378192591645     0.076967092453     0.191493249008
N                     0.009609183072     0.424545974408     0.130286466525
H                    -0.267956480503     0.959883864743     0.950630413263
C                    -0.951312041798    -0.624168087355    -0.153494952031
C                     1.868480140197    -1.196857997227    -0.119072722416
C                     3.669930294303     0.828637863616     0.502070178836
C                     3.239959742373    -1.453660244190    -0.101954673158
C                     4.162399942306    -0.446144312422     0.189105940035
H                     1.945230349269     2.096621599752     0.675417448697
H                     1.190233288884    -2.015371287608    -0.337880911193
H                     4.366467683674     1.633652919952     0.730887566098
H                     3.597043785960    -2.455157535726    -0.336540890223
N                     5.540076962459    -0.728936341859     0.275205283807
C                    -2.364836013703    -0.092547340654    -0.208812465329
C                    -2.646136786210     1.275767731329    -0.251091689325
C                    -3.430311081827    -1.000100132281    -0.179993630056
C                    -3.967526545413     1.724430819239    -0.286563910747
C                    -4.748859420626    -0.554084729516    -0.222764255835
C                    -5.022249869938     0.814023722649    -0.267297134852
H                    -1.828131132335     1.988090921389    -0.302703455711
H                    -3.223535947830    -2.068216756237    -0.128843088847
H                    -4.171072082115     2.791924811183    -0.323351750805
H                    -5.564057582018    -1.273215176080    -0.203798362897
H                    -6.050296617139     1.165905913538    -0.293322674878
H                    -0.688605773660    -1.052689690728    -1.129253566147
H                    -0.911010011651    -1.456596325245     0.571370851208
H                     6.117449479496     0.092416216965     0.123546832823
H                     5.829420990876    -1.465709946701    -0.360608691823
