
     RDKit          3D

 29 30  0  0  0  0  0  0  0  0999 V2000
    2.3596    1.2181    0.4865 C   0  0  0  0  0  0  0  0  0  0  0  0
    1.4373    0.2557    0.1456 C   0  0  0  0  0  0  0  0  0  0  0  0
    0.0404    0.5047    0.0988 N   0  0  0  0  0  0  0  0  0  0  0  0
   -0.2536    1.4702    0.3438 H   0  0  0  0  0  0  0  0  0  0  0  0
   -0.9286   -0.4744   -0.2508 C   0  0  0  0  0  0  0  0  0  0  0  0
    1.9143   -0.9954   -0.1594 C   0  0  0  0  0  0  0  0  0  0  0  0
    3.7262    0.9386    0.5224 C   0  0  0  0  0  0  0  0  0  0  0  0
    3.2744   -1.2864   -0.1273 C   0  0  0  0  0  0  0  0  0  0  0  0
    4.1805   -0.3089    0.2165 C   0  0  0  0  0  0  0  0  0  0  0  0
    2.0022    2.2162    0.7318 H   0  0  0  0  0  0  0  0  0  0  0  0
    1.2312   -1.7991   -0.4369 H   0  0  0  0  0  0  0  0  0  0  0  0
    4.4406    1.6999    0.7908 H   0  0  0  0  0  0  0  0  0  0  0  0
    3.6449   -2.2791   -0.3699 H   0  0  0  0  0  0  0  0  0  0  0  0
    5.5690   -0.6612    0.2341 N   0  0  0  0  0  0  0  0  0  0  0  0
   -2.3292   -0.0220   -0.2652 C   0  0  0  0  0  0  0  0  0  0  0  0
   -2.7857    1.2539   -0.2064 C   0  0  0  0  0  0  0  0  0  0  0  0
   -3.2905   -1.0384   -0.3460 C   0  0  0  0  0  0  0  0  0  0  0  0
   -4.1482    1.5872   -0.2227 C   0  0  0  0  0  0  0  0  0  0  0  0
   -4.6338   -0.7404   -0.3638 C   0  0  0  0  0  0  0  0  0  0  0  0
   -5.0689    0.5669   -0.3026 C   0  0  0  0  0  0  0  0  0  0  0  0
   -2.0722    2.0561   -0.1474 H   0  0  0  0  0  0  0  0  0  0  0  0
   -2.9885   -2.0744   -0.3957 H   0  0  0  0  0  0  0  0  0  0  0  0
   -4.4603    2.6209   -0.1734 H   0  0  0  0  0  0  0  0  0  0  0  0
   -5.3691   -1.5492   -0.4273 H   0  0  0  0  0  0  0  0  0  0  0  0
   -6.1286    0.7503   -0.3194 H   0  0  0  0  0  0  0  0  0  0  0  0
   -0.6644   -0.9542   -1.2437 H   0  0  0  0  0  0  0  0  0  0  0  0
   -0.9019   -1.3613    0.4538 H   0  0  0  0  0  0  0  0  0  0  0  0
    6.3185    0.0417    0.0558 H   0  0  0  0  0  0  0  0  0  0  0  0
    5.8846   -1.6364    0.4264 H   0  0  0  0  0  0  0  0  0  0  0  0
  1  7  2  0
  1 10  1  0
  2  1  1  0
  2  6  2  0
  3  5  1  0
  3  2  1  0
  3  4  1  0
  5 15  1  0
  5 26  1  0
  5 27  1  0
  6  8  1  0
  6 11  1  0
  7  9  1  0
  7 12  1  0
  8  9  2  0
  8 13  1  0
 14  9  1  0
 14 28  1  0
 14 29  1  0
 15 16  2  0
 15 17  1  0
 16 18  1  0
 16 21  1  0
 17 19  2  0
 17 22  1  0
 18 20  2  0
 18 23  1  0
 19 20  1  0
 19 24  1  0
 20 25  1  0
M  END
