
 OpenBabel11092109503D

 26 26  0  0  0  0  0  0  0  0999 V2000
   -4.2960    0.7099    0.0469 O   0  0  0  0  0  0  0  0  0  0  0  0
   -4.1555   -0.5195   -0.1345 C   0  0  0  0  0  0  0  0  0  0  0  0
   -2.8888   -1.1054   -0.0710 N   0  0  0  0  0  0  0  0  0  0  0  0
   -2.7909   -2.5570   -0.3312 C   0  0  0  0  0  0  0  0  0  0  0  0
   -1.6729   -0.4423    0.2171 C   0  0  0  0  0  0  0  0  0  0  0  0
    0.8187    0.7967    0.7396 C   0  0  0  0  0  0  0  0  0  0  0  0
    0.7684   -0.3901    0.0751 C   0  0  0  0  0  0  0  0  0  0  0  0
   -0.3808    1.3773    1.1515 C   0  0  0  0  0  0  0  0  0  0  0  0
   -0.4525   -0.9913   -0.1781 C   0  0  0  0  0  0  0  0  0  0  0  0
   -1.5812    0.7589    0.8881 C   0  0  0  0  0  0  0  0  0  0  0  0
   -5.3996   -1.3033   -0.4136 C   0  0  0  0  0  0  0  0  0  0  0  0
   -2.1724   -3.0439    0.4245 H   0  0  0  0  0  0  0  0  0  0  0  0
   -2.3340   -2.6537   -1.3286 H   0  0  0  0  0  0  0  0  0  0  0  0
   -3.8072   -3.0369   -0.2737 H   0  0  0  0  0  0  0  0  0  0  0  0
    1.6947   -0.8811   -0.2560 H   0  0  0  0  0  0  0  0  0  0  0  0
   -0.3362    2.3125    1.6730 H   0  0  0  0  0  0  0  0  0  0  0  0
   -0.4960   -1.9392   -0.7089 H   0  0  0  0  0  0  0  0  0  0  0  0
   -2.4841    1.2641    1.2460 H   0  0  0  0  0  0  0  0  0  0  0  0
   -5.5441   -2.1373    0.3081 H   0  0  0  0  0  0  0  0  0  0  0  0
   -5.2407   -1.7424   -1.4381 H   0  0  0  0  0  0  0  0  0  0  0  0
    2.0150    1.4857    1.0262 N   0  0  0  0  0  0  0  0  0  0  0  0
   -6.5381   -0.4815   -0.3951 N   0  0  0  0  0  0  0  0  0  0  0  0
    2.0467    2.3590    1.5950 H   0  0  0  0  0  0  0  0  0  0  0  0
    2.8602    1.1253    0.6726 H   0  0  0  0  0  0  0  0  0  0  0  0
   -6.6632   -0.0949    0.5405 H   0  0  0  0  0  0  0  0  0  0  0  0
   -7.3588   -1.0318   -0.6481 H   0  0  0  0  0  0  0  0  0  0  0  0
  2 11  1  0  0  0  0
  2  1  2  0  0  0  0
  3  5  1  0  0  0  0
  3  2  1  0  0  0  0
  3  4  1  0  0  0  0
  4 12  1  0  0  0  0
  4 13  1  0  0  0  0
  4 14  1  0  0  0  0
  6  7  2  0  0  0  0
  6  8  1  0  0  0  0
  7  9  1  0  0  0  0
  7 15  1  0  0  0  0
  8 10  2  0  0  0  0
  8 16  1  0  0  0  0
  9  5  2  0  0  0  0
  9 17  1  0  0  0  0
 10  5  1  0  0  0  0
 10 18  1  0  0  0  0
 11 19  1  0  0  0  0
 11 20  1  0  0  0  0
 21  6  1  0  0  0  0
 21 23  1  0  0  0  0
 21 24  1  0  0  0  0
 22 11  1  0  0  0  0
 22 25  1  0  0  0  0
 22 26  1  0  0  0  0
M  END
$$$$
