34

C -0.52760526 -0.13793364 0.27075220
N 0.65335428 -0.87893681 0.20355432
C 1.96369779 -0.64425683 -0.30274446
C 3.03590500 -1.30405976 0.36666017
H 0.60478807 -1.71077720 0.82198192
C 2.28395586 0.20520744 -1.39298214
C -1.54324497 -0.58829007 1.13184234
N -2.58697932 -1.83381350 2.73131462
C -2.89719354 -0.11125382 1.31127634
C -1.39114424 -1.72955931 2.06467946
C -3.48633613 -0.86909949 2.27573682
C -0.80084322 0.98580654 -0.66572938
C -1.20882074 2.25096437 -0.17026782
C -0.87459305 0.74907141 -2.06398567
C -1.59211859 3.27124707 -1.05022528
C -1.25492872 1.77341126 -2.94084812
C -1.60870487 3.04274921 -2.44101996
C 4.36096026 -1.13536641 -0.05576599
C 3.61411476 0.36702371 -1.80853625
C 4.66220637 -0.30120288 -1.14809360
H 2.83030362 -1.95467106 1.22098268
H 1.51844996 0.75514102 -1.92920804
H -2.75064977 -2.53460200 3.43950206
O -0.39253159 -2.47612720 2.23122917
H -1.21379960 2.42731972 0.90717904
H -0.63572542 -0.24305625 -2.45306546
H -1.88070952 4.24667832 -0.65502782
H -1.27982583 1.58390050 -4.01542036
H -1.90219874 3.84080806 -3.12541107
H 5.16084180 -1.65888947 0.47090567
H 3.83224480 1.02184105 -2.65430869
H -3.37098283 0.70332021 0.78107646
H -4.48344526 -0.81520395 2.69003750
H 5.69471663 -0.17204725 -1.47718067
