34

C -0.601660498256 -0.346930671928 0.282932533628
N -0.068360650674 -1.409484991237 -0.413010657093
C 1.163660393197 -1.528882885434 -1.099732047644
C 1.206898620102 -2.398992075917 -2.196694421458
H -0.643667115721 -2.234227695812 -0.445576488181
C 2.334923319195 -0.882136535254 -0.695567708845
C -1.665360566256 -0.545265132647 1.115745676645
N -3.465824558046 -0.147042723671 2.443240600089
C -2.296417114222 -1.811999439883 1.488479054594
C -2.453935336686 0.527787646985 1.761314106113
C -3.354720329471 -1.530310066036 2.277384760778
C -0.001505809485 1.001500452017 0.083255570573
C -0.331584259345 1.734419971130 -1.056232968123
C 0.789603266285 1.583672697333 1.073847842191
C 0.165593805980 3.023044329744 -1.226357178242
C 1.292561232765 2.867660869472 0.900174344223
C 0.983638039234 3.588629515281 -0.252149421476
C 2.395698581506 -2.608841008272 -2.885327134915
C 3.516741442740 -1.083689399605 -1.403602908179
C 3.557978757110 -1.945260327332 -2.496910765845
H 0.299498261061 -2.895485869586 -2.517413035822
H 2.331934275729 -0.232632029885 0.163275989502
H -4.162739736866 0.334438481781 2.976882436587
O -2.332417672646 1.765916274529 1.742579884483
H -0.978878918243 1.295741142857 -1.803473777891
H 0.993424615088 1.033649284859 1.983166407390
H -0.095633445945 3.587139399407 -2.111123374324
H 1.908113822405 3.312961616588 1.669694682333
H 1.366401427568 4.591802472750 -0.381822930001
H 2.409819203781 -3.283078176403 -3.730717472333
H 4.413995596490 -0.571775419058 -1.083797048755
H -1.959800907163 -2.803618283123 1.238669159780
H -4.043156227239 -2.199242212114 2.762753452209
H 4.482139616913 -2.101130466000 -3.035342972124
