34

C -0.58363804 -0.21462674 0.41063159
N 0.62964744 -0.87812749 0.52439391
C 1.88561621 -0.54934096 -0.03930852
C 2.53884323 -1.47360476 -0.89015792
H 0.66587566 -1.53324716 1.32954431
C 2.44496839 0.73796746 0.15083623
C -1.61519910 -0.56002051 1.29645023
N -2.65262260 -1.52350115 3.08123187
C -3.01276076 -0.18881928 1.29991015
C -1.42866483 -1.45168735 2.46335986
C -3.59821092 -0.77182419 2.38154395
C -0.82730307 0.67809589 -0.76046518
C -1.35279939 1.98029003 -0.55253062
C -0.39640052 0.32296267 -2.06754202
C -1.50140749 2.86992301 -1.62445318
C -0.54487638 1.21764506 -3.13563779
C -1.10385223 2.49353366 -2.92287619
C 3.74526959 -1.12383060 -1.51210511
C 3.65170301 1.07783154 -0.47563074
C 4.31253924 0.15133362 -1.30896151
H 2.10400852 -2.46109617 -1.05863687
H 1.93785449 1.46683554 0.78662162
H -2.80190501 -2.06651672 3.91925957
O -0.38375403 -2.04435404 2.83453824
H -1.64034267 2.28928119 0.45438498
H 0.04478613 -0.65918561 -2.24429347
H -1.92515999 3.86041787 -1.44967650
H -0.22622323 0.92327054 -4.13724672
H -1.22374945 3.18712941 -3.75722089
H 4.24411477 -1.84819329 -2.15833542
H 4.07768651 2.06939626 -0.31402850
H -3.51569710 0.44088537 0.57907940
H -4.62135038 -0.72653867 2.72783830
H 5.25294401 0.41968657 -1.79380409
