34

C -0.61725828 -0.24391285 0.20535119
N 0.52615220 -1.02070254 0.20954225
C 1.75916717 -0.98174892 -0.49615643
C 2.41615024 -2.22436882 -0.71753261
H 0.51221764 -1.70156946 0.98372270
C 2.38939795 0.20280519 -0.95143334
C -1.49128331 -0.42430410 1.26647747
N -2.38717057 -0.10090800 3.31397812
C -2.60274146 -1.32665391 1.42996745
C -1.37403265 0.36295061 2.50659654
C -3.11951053 -1.10321073 2.66881543
C -0.80191152 0.94864671 -0.65528157
C -1.69075733 0.89508538 -1.75561988
C -0.23200266 2.19459521 -0.29143083
C -1.92919322 2.04002850 -2.52811359
C -0.47138371 3.33683960 -1.06643318
C -1.31330206 3.26461195 -2.19533524
C 3.64556136 -2.27333876 -1.38838582
C 3.61890226 0.14326294 -1.62398751
C 4.25644863 -1.09201519 -1.84991849
H 1.96130690 -3.15519717 -0.36945033
H 1.94027099 1.17741651 -0.78764049
H -2.53941737 0.26730954 4.24161668
O -0.54753626 1.25114019 2.81128653
H -2.18172953 -0.04811688 -2.00255538
H 0.38551894 2.25557457 0.60769890
H -2.59434159 1.98083847 -3.39133646
H -0.00446132 4.28434791 -0.79216125
H -1.49412939 4.15344788 -2.80253221
H 4.12730014 -3.23907057 -1.55081635
H 4.08200800 1.06843291 -1.97146731
H -2.95907139 -2.05329178 0.71343067
H -3.94895719 -1.58062697 3.17200091
H 5.21294689 -1.13295442 -2.37400559
