34

C -0.49056591 0.01181427 0.47773937
N 0.61766031 -0.83017372 0.42723447
C 1.89190480 -0.60326037 -0.15168517
C 2.63513461 -1.70620264 -0.64097439
H 0.66325835 -1.46999202 1.24259920
C 2.42979556 0.70315674 -0.27431772
C -1.47995453 -0.40221119 1.38963037
N -2.39203156 -1.27457930 3.28952015
C -2.92032542 -0.27060817 1.34259190
C -1.18518959 -1.11288225 2.65555469
C -3.42877032 -0.78290480 2.49625787
C -0.86579606 0.80449573 -0.74048440
C -1.69050878 1.95373738 -0.59407350
C -0.39402752 0.48219765 -2.04584663
C -2.04898132 2.72922117 -1.70385810
C -0.75298355 1.26586680 -3.15098166
C -1.58442160 2.39069126 -2.98892873
C 3.88856664 -1.50331614 -1.23412847
C 3.68469389 0.89442656 -0.86871200
C 4.42390535 -0.20438436 -1.35266106
H 2.23110298 -2.71741258 -0.55631626
H 1.87165859 1.56619690 0.09361483
H -2.47042846 -1.71537798 4.19435474
O -0.07715929 -1.52693988 3.07470569
H -2.04389955 2.24134390 0.39812285
H 0.24214778 -0.38920439 -2.20375330
H -2.68996521 3.60219059 -1.56858849
H -0.38679949 0.99944337 -4.14402921
H -1.86497287 2.99644947 -3.85247630
H 4.44894940 -2.36292079 -1.60542942
H 4.08702469 1.90521612 -0.95474271
H -3.50414993 0.16722006 0.54484442
H -4.45325203 -0.85022608 2.83452493
H 5.40107002 -0.05114532 -1.81423297
