34

C -0.59128145 -0.24265089 0.32270084
N 0.63303072 -0.89643565 0.40113250
C 1.89410923 -0.60172973 -0.17859792
C 2.77698197 -1.67154211 -0.47592325
H 0.66994903 -1.57223620 1.18921418
C 2.32624013 0.72949462 -0.41075053
C -1.59776722 -0.57712362 1.24012476
N -2.58939117 -1.53061147 3.05433226
C -2.99540313 -0.20827373 1.27411614
C -1.38331774 -1.46960184 2.40056855
C -3.55263755 -0.78285245 2.37460441
C -0.80908060 0.79944200 -0.72058094
C -1.33927490 2.06955543 -0.37514552
C -0.55574915 0.51270505 -2.08753115
C -1.58393344 3.02975506 -1.36534513
C -0.79963744 1.47847617 -3.07257381
C -1.31359130 2.74242649 -2.71858208
C 4.03963593 -1.41476134 -1.02720986
C 3.58959159 0.97512485 -0.96596577
C 4.45479369 -0.09197292 -1.28118830
H 2.47155181 -2.70177291 -0.27952450
H 1.68307955 1.57353473 -0.15842721
H -2.71777137 -2.06747462 3.89948005
O -0.33267396 -2.07140368 2.73892738
H -1.55066328 2.29893371 0.67114077
H -0.16931088 -0.46840484 -2.37034101
H -1.98524379 4.00501200 -1.08467113
H -0.59178080 1.24876279 -4.11898179
H -1.50337258 3.49308333 -3.48799704
H 4.70134769 -2.25102902 -1.25937496
H 3.90033838 2.00472772 -1.15168521
H -3.51661522 0.41401163 0.55991142
H -4.56641265 -0.73397750 2.74679219
H 5.43741793 0.10415092 -1.71375934
