34

C -0.536840094752 -0.289000194529 0.382102558367
N 0.681077540590 -0.866806963314 0.577079780600
C 1.906603484278 -0.531614125813 -0.082990785080
C 2.296430790461 -1.181411800264 -1.252671158549
H 0.736495710668 -1.440089903940 1.424649278107
C 2.709738704749 0.476213802295 0.451169869198
C -1.536913274504 -0.521696968700 1.306353846113
N -2.514290559782 -1.298197697597 3.190409930730
C -2.939367338135 -0.126474017494 1.315946933276
C -1.308804199092 -1.292984869748 2.521899283476
C -3.491249163375 -0.603951037673 2.454636221366
C -0.774727213397 0.585278185923 -0.796541305405
C -1.351064898908 1.846557913451 -0.601421098745
C -0.526559052876 0.150984169237 -2.102996935899
C -1.629176678157 2.673241341333 -1.685401669237
C -0.811797417979 0.975634074099 -3.186863306149
C -1.356576329433 2.241148270068 -2.981442208145
C 3.484776229130 -0.825431445825 -1.885134415132
C 3.898638355767 0.830321659422 -0.181147555159
C 4.285605302436 0.183114286909 -1.352928070756
H 1.682106714371 -1.980064012470 -1.643285357603
H 2.391335522876 0.974455299462 1.356314085844
H -2.649206519632 -1.764187031053 4.066541230816
O -0.246913668621 -1.858794040536 2.917285542759
H -1.558654629928 2.181029774232 0.405464391587
H -0.132787685575 -0.838273550293 -2.274664622725
H -2.058576978840 3.651333549475 -1.517303730407
H -0.614722959692 0.626513747767 -4.191167016815
H -1.573231603790 2.882230186418 -3.824982644621
H 3.784799565561 -1.335404392914 -2.790265972083
H 4.517019260372 1.612706652714 0.236821176623
H -3.449972992301 0.426008314628 0.547278314105
H -4.499670614898 -0.526767525981 2.819076704679
H 5.206501576560 0.460751135626 -1.846894784618
