34

C -0.501261365309 -0.083673719529 0.347152103768
N 0.741723656905 -0.613084797418 0.534664006978
C 2.005180196606 -0.344195560312 -0.047248216841
C 2.238371604678 0.103911150576 -1.351302783984
H 0.799911711675 -1.136971057680 1.414540629988
C 3.107884374794 -0.617439491468 0.779495106776
C -1.470216679669 -0.351623305126 1.294125663777
N -2.385259773805 -1.118630237661 3.214519010271
C -2.892370365942 -0.037880678625 1.305505882422
C -1.187874108176 -1.064391197559 2.537459065818
C -3.406041861360 -0.505594352406 2.465096344136
C -0.899241417127 0.583699479376 -0.920842943124
C -1.490006832317 1.849321657740 -0.897942771724
C -0.870011070865 -0.134737233840 -2.122682595504
C -1.986039437860 2.416185576263 -2.070117289644
C -1.374529568156 0.427879644204 -3.289860738256
C -1.926022209433 1.708975957588 -3.267895563200
C 3.545903301765 0.287593383199 -1.799506911633
C 4.405117509778 -0.442067094466 0.318986802201
C 4.634635918423 0.015330242304 -0.978001191518
H 1.426494880659 0.325842516661 -2.019875673524
H 2.932823663318 -0.959501196069 1.791704646747
H -2.488501057292 -1.567147616535 4.103914480989
O -0.093970544750 -1.561477440668 2.936699872171
H -1.547403048405 2.389863066121 0.036993840230
H -0.462211566451 -1.136840283038 -2.132253378881
H -2.424571849716 3.404287817722 -2.044354597377
H -1.348307270561 -0.135742670678 -4.212450369825
H -2.316083746514 2.146357734065 -4.176759544919
H 3.705074705816 0.640847271904 -2.809512337623
H 5.236042134261 -0.657370116550 0.976956590364
H -3.437767816499 0.463372434343 0.526052035310
H -4.413427065941 -0.470456598011 2.838545336152
H 5.643582361048 0.155863905003 -1.339755024931
