34

C -0.553516360183 -0.080629676592 0.357896004085
N 0.689037415816 -0.546260588947 0.676075008203
C 1.966834204249 -0.290725660738 0.131056042460
C 2.237505983509 0.562360271518 -0.945379405088
H 0.704643306899 -1.009185783481 1.590089280055
C 3.031706227622 -0.979777533177 0.733075483988
C -1.577937496340 -0.269488158217 1.260826528284
N -2.612333749020 -0.879366656615 3.177365690830
C -3.003901197552 0.004591107572 1.143376982220
C -1.370530548451 -0.856950235698 2.582795980841
C -3.588268228917 -0.363679322223 2.305224046056
C -0.849114600668 0.455039843846 -0.995208084458
C -1.477069743274 1.693085401454 -1.148569390045
C -0.577814956303 -0.325162065394 -2.125548143503
C -1.804249506989 2.160353034039 -2.419942986049
C -0.912543826242 0.139812804287 -3.391799712191
C -1.522204881349 1.385808426214 -3.542349304143
C 3.545874831050 0.708637173623 -1.402475906324
C 4.331043299503 -0.822772846596 0.270888232817
C 4.598187940568 0.019906009121 -0.807259169289
H 1.454385849757 1.131721699914 -1.415233045490
H 2.828647216001 -1.638936876735 1.567437296811
H -2.770663642199 -1.243734597629 4.096529796121
O -0.299747592650 -1.290409377813 3.097396939633
H -1.693050331421 2.290026810212 -0.273037533616
H -0.099634488011 -1.287621993346 -2.004337560445
H -2.279303475843 3.125327044121 -2.531539567068
H -0.700673354263 -0.468104766358 -4.260505475112
H -1.778835015490 1.747175348141 -4.528733613212
H 3.736416804932 1.375335365430 -2.232713608185
H 5.134989412263 -1.362160647329 0.752858020512
H -3.503075844732 0.413971017882 0.283573653149
H -4.619858025029 -0.318881415357 2.604103409368
H 5.608668586301 0.140659472448 -1.171524343464
