34

C -0.512019482101 -0.070304261828 0.440310056499
N 0.630223551048 -0.822161067214 0.458578449241
C 1.872447189951 -0.558248714003 -0.168459137375
C 2.653783943876 -1.649671896024 -0.558169203064
H 0.643468816412 -1.533022736857 1.195960156838
C 2.359322218832 0.739384660573 -0.352283672543
C -1.486507116583 -0.378938025618 1.377672637618
N -2.403047615572 -1.393234587379 3.190072315158
C -2.886742360734 0.014628774422 1.504706828845
C -1.232023705473 -1.324676872454 2.468111359028
C -3.395947094154 -0.601847147459 2.594646148282
C -0.779207512378 0.826910305543 -0.716903786893
C -1.671746506426 1.901079840537 -0.605937299771
C -0.317035081646 0.478701317228 -1.996592995904
C -2.041100531898 2.643504185778 -1.723745981322
C -0.690287137574 1.217187475303 -3.112767778656
C -1.551265738888 2.305240190207 -2.981853596237
C 3.899081756900 -1.444304374613 -1.144512404402
C 3.596441201026 0.936852305605 -0.956874043552
C 4.371730151963 -0.150729962843 -1.356377884761
H 2.273559165964 -2.650846777868 -0.405636979583
H 1.773338321566 1.584793588244 -0.022332160322
H -2.510349011100 -1.979613547372 3.994599342820
O -0.188793672557 -1.993928623439 2.719312713107
H -2.025598191427 2.199870185989 0.369369716694
H 0.321965813792 -0.381744339639 -2.123152333681
H -2.710010654224 3.485315074577 -1.608840710692
H -0.317171998311 0.934034188317 -4.087258610067
H -1.840497920507 2.878845206075 -3.851727256654
H 4.496267683859 -2.295785473671 -1.440736160028
H 3.962089481378 1.944319822145 -1.101311434569
H -3.447231351321 0.638091368303 0.834362197495
H -4.390335560845 -0.568060156459 3.001481771307
H 5.335891120374 0.008287658521 -1.818634917664
