34

C -0.60815663 -0.20261745 0.33766367
N 0.46729129 -1.05899213 0.24216706
C 1.65975019 -1.00375353 -0.52550344
C 2.26365355 -2.22732515 -0.91831435
H 0.46252340 -1.76923962 0.98920158
C 2.31139493 0.21324913 -0.84946849
C -1.47567967 -0.37845236 1.40521675
N -2.35493315 -0.06294503 3.46209767
C -2.59815205 -1.26741591 1.56868527
C -1.34331564 0.39744460 2.65116031
C -3.10361738 -1.04990725 2.81327870
C -0.78469839 0.95163410 -0.57560998
C -1.28894683 0.75665315 -1.88377306
C -0.47217489 2.26305270 -0.14108921
C -1.45695684 1.85003893 -2.74453999
C -0.64296222 3.35277262 -1.00437153
C -1.13272713 3.15316472 -2.31197996
C 3.46255463 -2.22576673 -1.64469039
C 3.51063700 0.20375596 -1.57588747
C 4.09428893 -1.01259124 -1.98254621
H 1.79162612 -3.17876830 -0.66209252
H 1.89660827 1.16933252 -0.53389494
H -2.49790724 0.29914132 4.39358239
O -0.51175617 1.28103431 2.95726812
H -1.54263103 -0.25122655 -2.21726108
H -0.09686751 2.41291246 0.87323901
H -1.83924786 1.68963015 -3.75422020
H -0.39266763 4.35773909 -0.66066593
H -1.26143494 4.00296337 -2.98485314
H 3.90482298 -3.17654590 -1.94709899
H 3.99276101 1.15140080 -1.82199545
H -2.97025335 -1.98082806 0.84714546
H -3.93684722 -1.51969225 3.31726058
H 5.02717948 -1.01450845 -2.54921722
