34

C -0.63500067 -0.37099678 0.20643999
N 0.50424898 -1.14875750 0.06741466
C 1.76853550 -0.80326586 -0.46672959
C 2.52548024 0.25144995 0.09821095
H 0.47663212 -2.02364624 0.62662244
C 2.27542759 -1.50382460 -1.58742021
C -1.66886717 -0.82575563 1.03682352
N -2.76051083 -2.12686788 2.55281061
C -3.00981747 -0.32016087 1.22715162
C -1.55848882 -2.02476243 1.89677843
C -3.62748101 -1.11057385 2.14682245
C -0.69365674 0.95859408 -0.46803519
C -1.08237228 2.11930014 0.25071095
C -0.42751853 1.07521113 -1.85807571
C -1.17977994 3.35785780 -0.39705882
C -0.52258969 2.31728278 -2.49926442
C -0.89805378 3.46591989 -1.77388569
C 3.76590693 0.59815076 -0.45408711
C 3.51664517 -1.14839138 -2.13320106
C 4.27115285 -0.09633575 -1.57312322
H 2.14252398 0.79665853 0.96323405
H 1.69914421 -2.32067524 -2.02713099
H -2.94985083 -2.86115219 3.21930957
O -0.58663395 -2.81314166 2.01683871
H -1.30050352 2.04453948 1.31768365
H -0.14909287 0.18924560 -2.43152872
H -1.47597667 4.24240801 0.16964952
H -0.30806218 2.39353760 -3.56675144
H -0.97278105 4.43248239 -2.27566259
H 4.33966814 1.41311122 -0.00983789
H 3.89617633 -1.69440721 -2.99853790
H -3.45338205 0.53442142 0.73529656
H -4.62518970 -1.04975447 2.55854647
H 5.23722172 0.17764175 -2.00112660
