34

C -0.44076000 -0.07291125 0.41808965
N 0.70311205 -0.85660072 0.40421345
C 2.00038300 -0.56025606 -0.08501667
C 2.81426998 -1.61836169 -0.56280167
H 0.66733601 -1.63456717 1.09168289
C 2.49978085 0.76655391 -0.12547078
C -1.51188961 -0.48875944 1.22198610
N -2.68173754 -1.68640733 2.76545807
C -2.84778927 0.05122550 1.33856448
C -1.44826614 -1.62795546 2.16522265
C -3.51657221 -0.68408374 2.26804461
C -0.64757664 0.87257139 -0.70711141
C -0.98658321 2.22309525 -0.43090630
C -0.92754223 0.36894724 -2.00504686
C -1.42539255 3.07594192 -1.45135144
C -1.36648022 1.22207050 -3.02610225
C -1.60333895 2.58531293 -2.75984866
C 4.09539339 -1.35206934 -1.06514614
C 3.78240665 1.02160939 -0.63028554
C 4.59042077 -0.03258942 -1.10276626
H 2.44307782 -2.64550305 -0.54019558
H 1.89366220 1.59710797 0.23960716
H -2.90916114 -2.37957142 3.46329269
O -0.48489316 -2.40440200 2.38930657
H -0.89181073 2.59578386 0.59135219
H -0.78860085 -0.69547868 -2.20553584
H -1.63548209 4.12324146 -1.22773411
H -1.53154328 0.82665486 -4.02990543
H -1.93670668 3.25253475 -3.55674887
H 4.70974667 -2.17775250 -1.42824892
H 4.15349497 2.04767713 -0.65369411
H -3.25507067 0.88968546 0.79050260
H -4.53032671 -0.59048749 2.63170885
H 5.58932654 0.17082725 -1.49296112
