34

C -0.39127776 -0.35168114 0.33073163
N -0.07877839 -1.36933024 -0.54143174
C 1.11909363 -1.62702333 -1.25435514
C 1.04577123 -2.30584499 -2.49750902
H -0.74069804 -2.15806478 -0.48435782
C 2.38549758 -1.21626177 -0.76668236
C -1.52985711 -0.51558200 1.10420664
N -3.73057124 -0.49308711 1.60748368
C -1.69416962 -0.95936700 2.46507992
C -2.86962124 -0.21847898 0.57029230
C -3.02757109 -0.92856120 2.73610222
C 0.24066466 0.97973758 0.19596396
C -0.24826863 1.87182623 -0.79453522
C 0.91613159 1.54575301 1.30955239
C 0.11106318 3.22587072 -0.78688016
C 1.27786696 2.89916866 1.32098740
C 0.89641044 3.74467228 0.26112343
C 2.21269482 -2.56818803 -3.22845016
C 3.54594543 -1.48149631 -1.50704053
C 3.47044011 -2.15877219 -2.74110561
H 0.07822562 -2.62485745 -2.89190287
H 2.46882194 -0.69442077 0.18754200
H -4.72921159 -0.37701566 1.51553597
O -3.19941952 0.17542454 -0.56937006
H -0.91124412 1.48635696 -1.57261932
H 1.16512177 0.90695943 2.15951905
H -0.22518767 3.88004360 -1.59295328
H 1.85314410 3.29750766 2.15860760
H 1.18910757 4.79603610 0.26192143
H 2.13918618 -3.09409190 -4.18201922
H 4.51326335 -1.15896140 -1.11796389
H -0.91285547 -1.26431032 3.14674684
H -3.55951688 -1.19185924 3.63983480
H 4.37675918 -2.36376192 -3.31350882
