34

C -0.38598086 -0.03918828 0.52449588
N 0.52973735 -0.94959181 0.01976718
C 1.86902423 -0.72652059 -0.38758606
C 2.43840604 -1.54375446 -1.39559438
H 0.35411838 -1.91684094 0.33327465
C 2.64298880 0.31952426 0.17624975
C -1.44196270 -0.75523105 1.08051472
N -2.76157940 -1.57731658 2.71867565
C -2.49799743 -1.53147051 0.47742087
C -1.64602758 -0.79208970 2.53798398
C -3.26774055 -2.01472763 1.49038749
C -0.72325883 1.19298362 -0.26705424
C -1.77755814 2.03554029 0.18924035
C -0.10492783 1.52211590 -1.50977717
C -2.16674706 3.16764740 -0.53850494
C -0.49781919 2.65915304 -2.22980476
C -1.52700954 3.49022526 -1.74946992
C 3.75318592 -1.31698153 -1.82588122
C 3.95573889 0.53864594 -0.26368671
C 4.52149343 -0.27563844 -1.26612820
H 1.85366029 -2.35175324 -1.84059024
H 2.22231586 0.95874131 0.95552172
H -3.12611631 -1.77796265 3.63864799
O -0.98312258 -0.24808289 3.44551437
H -2.28858290 1.80821774 1.12696013
H 0.68020516 0.89398693 -1.92776306
H -2.97016067 3.80264797 -0.16064446
H -0.00169018 2.89831834 -3.17216713
H -1.82849972 4.37543084 -2.31245801
H 4.17819575 -1.95507668 -2.60244173
H 4.53830304 1.34914292 0.17734891
H -2.65099689 -1.70610079 -0.57826214
H -4.14459743 -2.64633935 1.45610255
H 5.54415267 -0.10152364 -1.60560979
