30

N -0.02708040 0.33870942 -0.10575997
C 0.69780568 -0.87292764 -0.23701954
C 2.22496177 -0.96237266 -0.57309235
N 3.35339917 0.01247883 -0.25435200
O 0.09093352 -1.94025127 -0.12621729
H 2.56687586 -1.94297540 -0.19918437
H 2.28351116 -1.10258694 -1.66812057
C -1.41236839 0.26588336 0.33549727
C -4.10453870 0.23087834 1.20332992
C -3.70712998 -0.55432619 0.11332234
C -3.16299883 1.03658959 1.85652927
C -2.37665149 -0.54254981 -0.32696297
C -1.82667341 1.06263094 1.43285536
C 0.19091134 1.48619844 -1.01175544
C 4.66337568 -0.65832978 -0.47562646
C 3.34096396 1.25663736 -1.04007213
H -4.43720635 -1.18032166 -0.40270910
H -3.46683629 1.65500639 2.70318100
H -2.08365024 -1.15955358 -1.17778416
H -1.10689105 1.69799610 1.95344414
H -0.74921037 1.80630397 -1.46549457
H 0.58246538 2.33559515 -0.45322869
H 0.84635179 1.22101196 -1.83831221
H 4.72933302 -1.55584145 0.16116483
H 4.79258883 -0.94970354 -1.53222819
H 3.16502250 1.06133443 -2.11056574
H 2.58186926 1.92527699 -0.62549605
H -5.14291094 0.21599273 1.54037576
H 5.48619467 0.01012488 -0.17261449
H 4.29595687 1.79624005 -0.92867058
