30

N -0.091045602774 0.213354535621 -0.587349005415
C 0.798226261565 -0.831648167787 -0.430488615395
C 2.194782174273 -0.691271776738 -1.020156220366
N 3.139304330806 -0.081761706323 -0.079715277086
O 0.506461112522 -1.848693710026 0.219143634684
H 2.530068275528 -1.709011284854 -1.205932720552
H 2.179503647114 -0.162862255010 -1.989535342612
C -1.377330861241 0.155030511334 0.053966967799
C -3.884076328309 0.140368691700 1.279429816558
C -3.485367850664 -0.930457252321 0.481705487315
C -3.022854619885 1.219260433589 1.467120590449
C -2.238072895205 -0.924828692723 -0.136716565095
C -1.769233445659 1.222728269403 0.861835699455
C 0.114112800288 1.286356806978 -1.571680489493
C 4.521155728276 -0.230590802875 -0.519281311561
C 2.840370107568 1.261233146550 0.395996650669
H -4.146132251578 -1.774555015605 0.339765931161
H -3.318743597764 2.050067043839 2.092885199669
H -1.920825567308 -1.760580910753 -0.739958208812
H -1.085840682773 2.046601011167 1.020910538895
H -0.725029910777 1.972736585194 -1.506589996632
H 1.026716847527 1.845368091830 -1.383631729345
H 0.146607042060 0.889366117702 -2.588570766404
H 4.733049022199 -1.278437666052 -0.731319965551
H 4.747450360272 0.360141687293 -1.425871562597
H 2.968091742915 2.036494089707 -0.381717937962
H 1.823573777791 1.309951350014 0.782443083435
H -4.854788342915 0.130487261765 1.755687715553
H 5.193330382177 0.094804003822 0.274757930414
H 3.516376274386 1.503141768200 1.216638695025
