30

N -0.06755119 -0.19659078 -0.28444113
C 0.92314428 0.53762128 0.42811291
C 2.43185597 0.58375515 0.02379704
N 3.03870534 -0.16072008 -1.10858802
O 0.58309497 1.21133276 1.40202076
H 2.70637269 1.64402235 -0.11242449
H 3.00916911 0.30044779 0.92252377
C -1.45777137 -0.08217601 0.15210214
C -4.13567561 0.21831018 1.03614018
C -3.14610137 -0.21995315 1.92383008
C -3.79076066 0.52798127 -0.28465449
C -1.81831977 -0.36146907 1.49920280
C -2.46764490 0.39551478 -0.73040466
C 0.15587779 -0.92676846 -1.55605300
C 4.39168678 0.36950740 -1.42268671
C 3.20404006 -1.60080678 -0.74538524
H -3.40603794 -0.45458306 2.95752221
H -4.55546922 0.88024194 -0.97955737
H -1.05924567 -0.68908447 2.21174711
H -2.22712605 0.67505353 -1.75795662
H -0.72285664 -0.89709843 -2.19774464
H 0.96962127 -0.49215774 -2.13160999
H 0.36184497 -1.97675887 -1.35319432
H 4.30294478 1.41938675 -1.74794582
H 5.06620879 0.31749062 -0.55051827
H 3.96699798 -1.73637432 0.04048576
H 2.26155392 -2.02383979 -0.37136324
H -5.16861727 0.32345208 1.37365203
H 4.82835328 -0.19755933 -2.26146403
H 3.49918469 -2.16921855 -1.64265174
