30

N -0.05922352 0.29270898 -0.30994751
C 0.92787421 0.84602336 0.55023013
C 2.40430317 0.98816836 0.07169609
N 2.98919873 0.01383047 -0.87423858
O 0.62084156 1.25363465 1.67082513
H 2.55279041 1.99681840 -0.35080210
H 3.04862929 0.98694934 0.96905144
C -1.44517468 0.26421893 0.13711465
C -4.13437018 0.25815921 1.02452234
C -3.13544900 -0.34275011 1.80066534
C -3.79329422 0.87371055 -0.18625797
C -1.80084651 -0.34032148 1.37290853
C -2.46358514 0.89137873 -0.63105588
C 0.20971254 -0.22419814 -1.67366969
C 4.26450520 0.49920318 -1.43908198
C 3.19563324 -1.29920062 -0.22150006
H -3.39373491 -0.81820369 2.74855731
H -4.56640663 1.34808798 -0.79364370
H -1.03413117 -0.80314273 1.99673951
H -2.22026831 1.39614141 -1.56833240
H -0.70890760 -0.35803988 -2.24419736
H 0.84577627 0.46439828 -2.22853486
H 0.70046360 -1.19448658 -1.61773189
H 4.08964088 1.44083888 -1.98522353
H 5.01413481 0.66931823 -0.64754170
H 3.93369047 -1.22890204 0.59559934
H 2.24297075 -1.66946493 0.19146135
H -5.17213693 0.25049530 1.36364093
H 4.65337564 -0.23558506 -2.16302955
H 3.54406405 -2.03131799 -0.96834633
