30

N -0.239479464741 0.270663494272 -0.736146199251
C 0.885797108014 -0.021942589508 0.009570998413
C 2.221925713279 0.138959989482 -0.699922902515
N 3.274347447785 -0.745115934189 -0.210029347457
O 0.799956183514 -0.363396645659 1.200693043940
H 2.104763143460 -0.069649096341 -1.760890040488
H 2.508074028566 1.209154921909 -0.622363795891
C -1.533338355761 0.246877093413 -0.111216137787
C -4.074170581465 0.211432530559 1.046607994759
C -3.236470901201 -0.897458880047 1.154136769159
C -3.633852508269 1.343087690468 0.364696786738
C -1.971197312575 -0.885622451495 0.575346885671
C -2.363467256646 1.365032778546 -0.205275176205
C -0.170129110968 0.669724640354 -2.147360906342
C 4.411527309458 -0.762654813883 -1.130866819160
C 3.718696031817 -0.460617743409 1.160052486848
H -3.567753138920 -1.777055062156 1.688697156926
H -4.271134542346 2.213334095121 0.285743759394
H -1.315748020929 -1.736724639389 0.669138065440
H -2.011663097415 2.254475136478 -0.711122785954
H -1.176792712328 0.883264235954 -2.493846681563
H 0.438026411662 1.564543731149 -2.290323898198
H 0.227796794243 -0.135204127311 -2.767943478022
H 4.089058020558 -1.068932795527 -2.127026090239
H 4.908516898642 0.221199444788 -1.210868027596
H 4.201750345018 0.531265611832 1.233707630772
H 2.870926846973 -0.496233984189 1.833222516683
H -5.057906521116 0.195779674775 1.495130275956
H 5.146185298569 -1.485847765828 -0.778621318386
H 4.443415310501 -1.217395150303 1.460220799103
