30

N -0.128483849905 0.262297831400 -0.549675930372
C 0.940895534295 0.519249406400 0.272122105127
C 2.278078805017 0.780908441825 -0.399641741088
N 3.040453150327 -0.461298533586 -0.569536414724
O 0.837234893921 0.576345911100 1.511853568461
H 2.149688667761 1.245566481996 -1.375492800262
H 2.807600391674 1.497823373004 0.246551691201
C -1.447846196062 0.107985282542 -0.008521594237
C -4.053135862765 -0.204983192181 0.939633361037
C -3.013427369036 -0.961762033072 1.477579162452
C -3.786472826156 0.709983044356 -0.076336198109
C -1.713179221655 -0.814709178221 1.002662229820
C -2.485668840364 0.870139713449 -0.545947671281
C 0.045406909357 0.025658908379 -1.989198767606
C 4.170321841068 -0.291866646490 -1.481585470046
C 3.441827414871 -1.076325256004 0.697166330874
H -3.214498088129 -1.671571897188 2.268268041360
H -4.585403773506 1.306062236132 -0.495926422866
H -0.904194913389 -1.390436680813 1.423694765069
H -2.268749675580 1.591675342694 -1.322311160001
H -0.795828221340 -0.564475769406 -2.343156388034
H 0.081060512029 0.956193571884 -2.560794247087
H 0.957259100522 -0.543951535900 -2.158535312264
H 3.819485130029 0.075937685263 -2.446599840065
H 4.925972687173 0.412608962878 -1.093028257656
H 4.173078010447 -0.455178355251 1.241132273001
H 2.578811638928 -1.215899184020 1.342574493509
H -5.061357068834 -0.325234463677 1.311506107497
H 4.654031932215 -1.254963988413 -1.642547200455
H 3.890073714149 -2.048819678868 0.495556838642
