30

N -0.09239274 0.17431046 -0.54813002
C 0.75418028 -0.95815360 -0.43761937
C 2.19138204 -0.84052644 -1.02435693
N 3.23166897 -0.33073627 -0.09308395
O 0.39258529 -1.97481487 0.15424009
H 2.52277026 -1.83494958 -1.36876786
H 2.22582444 -0.22172031 -1.93684490
C -1.39753385 0.14344667 0.08557046
C -3.94634976 0.15162293 1.30792462
C -3.58886232 -0.88302965 0.43342163
C -3.03483358 1.18248680 1.57111501
C -2.32800447 -0.89632130 -0.17855380
C -1.76840153 1.18814920 0.96966057
C 0.06379995 1.17993385 -1.62870099
C 4.58918012 -0.55239608 -0.62996620
C 3.04415263 1.09033577 0.25037076
H -4.29541443 -1.68762488 0.22234162
H -3.30763264 1.99345755 2.24874996
H -2.06242905 -1.71164673 -0.85351372
H -1.07012324 1.99931060 1.18679409
H -0.81969955 1.81508006 -1.70561092
H 0.91867581 1.82369345 -1.43034623
H 0.19811349 0.68798516 -2.59268803
H 4.74431498 -1.63017801 -0.80137111
H 4.74174524 -0.00373307 -1.57490023
H 3.11676605 1.73178243 -0.64368710
H 2.06600039 1.22910613 0.73673812
H -4.93007268 0.15447798 1.78139334
H 5.33867231 -0.22710841 0.10993373
H 3.81199459 1.39623115 0.97975637
