30

N -0.17913483 0.23348026 -0.67142996
C 0.79244785 -0.76152274 -0.39863256
C 2.18896880 -0.59526360 -1.06844530
N 3.30433366 -0.46142452 -0.10717567
O 0.55796205 -1.69135546 0.37258002
H 2.40379512 -1.46928697 -1.70666561
H 2.25072210 0.26539349 -1.75418517
C -1.45847392 0.18524339 0.01240570
C -3.95678889 0.14062977 1.33496338
C -3.50953028 -0.98921352 0.63758117
C -3.15905875 1.29161007 1.37397216
C -2.27277659 -0.97720145 -0.02166701
C -1.91770656 1.32375771 0.72300413
C -0.09616683 1.14824360 -1.83493110
C 4.61404607 -0.62142636 -0.76601271
C 3.24230730 0.82453748 0.61657771
H -4.12578618 -1.88933817 0.60350988
H -3.50220763 2.17594432 1.91410520
H -1.93492572 -1.86695400 -0.55535404
H -1.30770186 2.22842330 0.76861688
H -1.06000541 1.61958904 -2.03249065
H 0.63151351 1.93644135 -1.63960973
H 0.18843171 0.60305573 -2.73543479
H 4.66897400 -1.61757287 -1.23496441
H 4.77667740 0.15666645 -1.53111935
H 3.32902838 1.68084518 -0.07341951
H 2.29160775 0.89222067 1.16989605
H -4.92136025 0.12358269 1.84596829
H 5.41538064 -0.56883700 -0.01094161
H 4.05550535 0.86820513 1.35916964
