25_27_Index_0-opt-1_2-3-029.xyz
 OpenBabel06082216253D

 30 30  0  0  0  0  0  0  0  0999 V2000
    0.0104    0.3073   -0.1617 N   0  0  0  0  0  0  0  0  0  0  0  0
    0.7102   -0.8801   -0.2959 C   0  0  0  0  0  0  0  0  0  0  0  0
    2.1995   -0.9973   -0.6484 C   0  0  0  0  0  0  0  0  0  0  0  0
    3.2444   -0.0256   -0.3075 N   0  0  0  0  0  0  0  0  0  0  0  0
    0.1555   -1.9679   -0.0464 O   0  0  0  0  0  0  0  0  0  0  0  0
    2.4656   -1.9290   -0.1573 H   0  0  0  0  0  0  0  0  0  0  0  0
    2.2252   -1.2175   -1.7388 H   0  0  0  0  0  0  0  0  0  0  0  0
   -1.3588    0.2389    0.3076 C   0  0  0  0  0  0  0  0  0  0  0  0
   -3.9956    0.2955    1.2057 C   0  0  0  0  0  0  0  0  0  0  0  0
   -3.6342   -0.5291    0.1406 C   0  0  0  0  0  0  0  0  0  0  0  0
   -3.0325    1.0880    1.8252 C   0  0  0  0  0  0  0  0  0  0  0  0
   -2.3192   -0.5581   -0.3144 C   0  0  0  0  0  0  0  0  0  0  0  0
   -1.7126    1.0549    1.3790 C   0  0  0  0  0  0  0  0  0  0  0  0
    0.1780    1.4106   -1.1307 C   0  0  0  0  0  0  0  0  0  0  0  0
    4.5528   -0.6539   -0.5231 C   0  0  0  0  0  0  0  0  0  0  0  0
    3.2260    1.3312   -0.8303 C   0  0  0  0  0  0  0  0  0  0  0  0
   -4.3765   -1.1559   -0.3346 H   0  0  0  0  0  0  0  0  0  0  0  0
   -3.3028    1.7225    2.6582 H   0  0  0  0  0  0  0  0  0  0  0  0
   -2.0326   -1.2129   -1.1222 H   0  0  0  0  0  0  0  0  0  0  0  0
   -0.9474    1.6491    1.8597 H   0  0  0  0  0  0  0  0  0  0  0  0
   -0.7399    1.5076   -1.7118 H   0  0  0  0  0  0  0  0  0  0  0  0
    0.3674    2.3591   -0.6314 H   0  0  0  0  0  0  0  0  0  0  0  0
    0.9842    1.1981   -1.8220 H   0  0  0  0  0  0  0  0  0  0  0  0
    4.6105   -1.5948    0.0245 H   0  0  0  0  0  0  0  0  0  0  0  0
    4.7508   -0.8642   -1.5895 H   0  0  0  0  0  0  0  0  0  0  0  0
    3.1237    1.3819   -1.9299 H   0  0  0  0  0  0  0  0  0  0  0  0
    2.4421    1.9186   -0.3652 H   0  0  0  0  0  0  0  0  0  0  0  0
   -5.0197    0.3136    1.5532 H   0  0  0  0  0  0  0  0  0  0  0  0
    5.3406   -0.0006   -0.1488 H   0  0  0  0  0  0  0  0  0  0  0  0
    4.1734    1.8033   -0.5695 H   0  0  0  0  0  0  0  0  0  0  0  0
  1  8  1  0  0  0  0
  2  1  1  0  0  0  0
  2  5  2  0  0  0  0
  3  4  1  0  0  0  0
  3  2  1  0  0  0  0
  3  6  1  0  0  0  0
  7  3  1  0  0  0  0
  8 13  1  0  0  0  0
  9 28  1  0  0  0  0
  9 11  1  0  0  0  0
 10  9  2  0  0  0  0
 11 18  1  0  0  0  0
 12 10  1  0  0  0  0
 12  8  2  0  0  0  0
 13 11  2  0  0  0  0
 13 20  1  0  0  0  0
 14 22  1  0  0  0  0
 14  1  1  0  0  0  0
 15  4  1  0  0  0  0
 15 29  1  0  0  0  0
 15 24  1  0  0  0  0
 16 30  1  0  0  0  0
 16 27  1  0  0  0  0
 16  4  1  0  0  0  0
 17 10  1  0  0  0  0
 19 12  1  0  0  0  0
 21 14  1  0  0  0  0
 23 14  1  0  0  0  0
 25 15  1  0  0  0  0
 26 16  1  0  0  0  0
M  END
