
     RDKit          3D

  5  4  0  0  0  0  0  0  0  0999 V2000
   -9.2736   -0.8831   -0.4829 H   0  0  0  0  0  0  0  0  0  0  0  0
   -9.1191    0.1352   -0.3245 N   0  0  0  0  0  0  0  0  0  0  0  0
   -8.1227    0.3121   -0.1971 H   0  0  0  0  0  0  0  0  0  0  0  0
   -9.6262    0.4303    0.5099 H   0  0  0  0  0  0  0  0  0  0  0  0
   -9.4572    0.6599   -1.1312 H   0  0  0  0  0  0  0  0  0  0  0  0
  2  1  1  0
  2  3  1  0
  2  4  1  0
  2  5  1  0
M  CHG  1   2   1
M  END
