74_Index_0-opt_1.xyz
 OpenBabel11042121423D

  5  4  0  0  0  0  0  0  0  0999 V2000
   -0.6292   -0.6682   -0.4642 H   0  0  0  0  0  0  0  0  0  0  0  0
    0.0000   -0.0000    0.0000 N   0  0  0  0  0  0  0  0  0  0  0  0
   -0.4862    0.4316    0.7969 H   0  0  0  0  0  0  0  0  0  0  0  0
    0.2773    0.7306   -0.6687 H   0  0  0  0  0  0  0  0  0  0  0  0
    0.8374   -0.4937    0.3357 H   0  0  0  0  0  0  0  0  0  0  0  0
  1  2  1  0  0  0  0
  2  5  1  0  0  0  0
  2  3  1  0  0  0  0
  4  2  1  0  0  0  0
M  END
