17

N 0.24086598 0.27272867 -0.02300973
C -0.82220146 1.04539373 0.72348064
C -0.31761712 -0.90119821 -0.78950347
C 1.41281950 -0.10323207 0.85457761
H 0.61835880 0.92595428 -0.73001782
H -1.58690735 1.35352905 0.00681656
H -0.35374841 1.92959237 1.16267639
H 0.49342186 -1.34771944 -1.36962467
H -1.09023260 -0.52963012 -1.46672209
H 1.81861616 0.81367547 1.28877435
H 1.06388028 -0.78600973 1.63217197
H 2.17078557 -0.57756344 0.22715865
H -1.24645171 0.39994412 1.49556665
H -0.73176252 -1.61886042 -0.07800669
O 1.52102420 2.50214164 -1.41771167
H 2.42657543 2.54043506 -1.74128171
H 1.10707338 3.32512904 -1.69615497
