17

N 0.20594622 0.15998234 -0.20420131
C -0.90177185 1.01225846 0.36457100
C -0.27371060 -1.19918862 -0.65865431
C 1.41010856 0.07903123 0.70606934
H 0.53170312 0.64205951 -1.05902237
H -1.68688861 1.09946926 -0.39019545
H -0.49334917 2.00166439 0.58309800
H 0.56270755 -1.70926460 -1.14239492
H -1.08060821 -1.05250372 -1.38029416
H 1.74520879 1.09636094 0.92076184
H 1.12273364 -0.44125546 1.62242299
H 2.19865932 -0.46119427 0.17670869
H -1.28030350 0.53517753 1.27124872
H -0.62332940 -1.75692019 0.21295786
O 1.59037015 0.96822564 -2.65339524
H 1.46320583 0.59439542 -3.53110983
H 2.23381816 1.67601216 -2.75938085
