17

N 0.23317652 0.21129993 -0.07065421
C -0.82193180 1.05734058 0.60297432
C -0.33797780 -1.01350703 -0.74237589
C 1.39522685 -0.10804589 0.84122211
H 0.62351880 0.79882435 -0.82644590
H -1.57520386 1.32126723 -0.14285308
H -0.34204720 1.96533571 0.97577211
H 0.46960201 -1.51567863 -1.28018350
H -1.10239155 -0.68812215 -1.45195887
H 1.81311762 0.83543878 1.20064235
H 1.03246976 -0.71973129 1.67006948
H 2.14891293 -0.64257750 0.25853280
H -1.26307445 0.48202317 1.41986770
H -0.76444617 -1.66595957 0.02274345
O 1.56998603 2.21685257 -1.73331207
H 2.43622498 2.14690929 -2.14704883
H 1.20933734 3.06264043 -2.01780197
