17

N -0.09842521 -0.10919467 -0.26512167
C -1.06086793 0.85640848 0.38424262
C -0.51394602 -1.55151327 -0.09745364
C 1.33712317 0.13741373 0.13460496
H -0.14733657 0.08273227 -1.27977430
H -2.05558511 0.67439627 -0.02922902
H -0.74370311 1.87215848 0.13691584
H 0.17365588 -2.17342410 -0.67549296
H -1.52681015 -1.66260713 -0.49159471
H 1.58481175 1.17422229 -0.10440251
H 1.44104178 -0.05433283 1.20491698
H 1.97266720 -0.53342887 -0.44809658
H -1.04736126 0.69192207 1.46393354
H -0.47591791 -1.80571184 0.96408920
O -0.30472130 0.46290380 -3.14964902
H -0.75482479 -0.06726915 -3.81501949
H 0.07088956 1.21352448 -3.62072924
