17

N 0.17119565 0.23908408 -0.21312912
C -0.91960054 1.01995143 0.47989113
C -0.30609232 -1.09386206 -0.73879281
C 1.42704107 0.12324116 0.61832607
H 0.43490835 0.79300260 -1.04526291
H -1.74699751 1.14636023 -0.22234687
H -0.51918643 1.99895919 0.75307969
H 0.50918711 -1.54823865 -1.30671569
H -1.15734359 -0.91447929 -1.39968441
H 1.75716348 1.13144530 0.87894820
H 1.20242513 -0.46141567 1.51304624
H 2.19268232 -0.36520454 0.01114009
H -1.23782487 0.46574626 1.36552010
H -0.59188311 -1.72147257 0.10816098
O 1.20765158 1.62838704 -2.59174026
H 1.26088714 1.27297368 -3.48458137
H 1.54028655 2.52983184 -2.64666907
