17

N 0.15976468 0.25653399 -0.14987118
C -0.92859518 0.99790479 0.59408202
C -0.31390536 -1.05619653 -0.72462536
C 1.42860705 0.11926380 0.65881184
H 0.40316823 0.85448975 -0.95737256
H -1.77587660 1.13049200 -0.08247491
H -0.53540981 1.97592764 0.88194670
H 0.49739725 -1.48092035 -1.32046220
H -1.17390632 -0.85703268 -1.36816206
H 1.75651239 1.11993667 0.94989869
H 1.21870660 -0.49550915 1.53678669
H 2.18843584 -0.34609605 0.02680034
H -1.21392059 0.41388382 1.47175272
H -0.58546585 -1.72080857 0.09844151
O 0.78154734 2.49156642 -1.93273411
H 0.16645051 2.97783806 -2.49090594
H 1.65098980 2.86303639 -2.11272218
