17

N 0.05343339 0.26581929 -0.14561305
C -1.03651210 0.88166023 0.70118862
C -0.34053846 -1.07007679 -0.72702797
C 1.38954285 0.22755843 0.56015073
H 0.17969901 0.90454254 -0.94867830
H -1.94050197 0.95685018 0.09244804
H -0.71149734 1.88177263 0.99803272
H 0.45744513 -1.40009784 -1.39642839
H -1.26249862 -0.93553490 -1.29743328
H 1.64399176 1.24711882 0.85954690
H 1.30785540 -0.42888516 1.42919782
H 2.13704952 -0.14452526 -0.14426924
H -1.20288446 0.24657402 1.57394195
H -0.48495833 -1.77905103 0.09117671
O 0.60061210 2.50887892 -1.94295107
H -0.03521091 3.05956404 -2.41055460
H 1.46947303 2.82214188 -2.21353759
