17

N 0.04219651 0.33927146 -0.09159286
C -1.06184118 0.85950984 0.79871649
C -0.32606037 -0.94552020 -0.79158134
C 1.37461600 0.25902346 0.61840709
H 0.16338171 1.04863963 -0.83413325
H -1.96538033 0.96874299 0.19464786
H -0.75684790 1.83670974 1.18049195
H 0.48056337 -1.20012550 -1.48301711
H -1.24858817 -0.77724057 -1.35216430
H 1.61132071 1.25178649 1.00854458
H 1.29807423 -0.47334840 1.42527203
H 2.13185453 -0.03782748 -0.11071422
H -1.21892631 0.14939966 1.61353701
H -0.46064359 -1.72675570 -0.04025088
O 0.63454205 2.75513534 -1.63596326
H 0.01449691 3.36608832 -2.04649753
H 1.51174182 3.07082092 -1.87451225
