17

N -0.01315917 0.18126641 -0.10326261
C -1.08757714 0.73440259 0.80522597
C -0.37683972 -1.15966877 -0.69219776
C 1.35471783 0.18775454 0.54068257
H 0.04871660 0.84013416 -0.89764175
H -2.02305284 0.77544918 0.24262067
H -0.79380538 1.74463250 1.10057875
H 0.40151700 -1.44180883 -1.40517344
H -1.33071708 -1.05622662 -1.21468827
H 1.57802546 1.21118838 0.85099980
H 1.34160386 -0.48932163 1.39759769
H 2.08451713 -0.13627654 -0.20485590
H -1.18137715 0.08109837 1.67537936
H -0.45045346 -1.88885327 0.11764318
O 0.37524942 2.56685484 -1.74021267
H -0.29765678 3.12238631 -2.14627748
H 1.22098143 2.93518841 -2.01427811
