17

N -0.08360249 -0.19633747 -0.25969474
C -1.01798029 0.87869214 0.24014298
C -0.56333489 -1.59000386 0.07162596
C 1.35206811 0.03938701 0.14738296
H -0.09806327 -0.13022632 -1.29134668
H -2.01080142 0.68620183 -0.17297589
H -0.65280613 1.84291058 -0.12106599
H 0.11112954 -2.30436959 -0.40638955
H -1.57063765 -1.70974784 -0.33385865
H 1.64825943 1.03087936 -0.20261925
H 1.42319831 -0.03018312 1.23508069
H 1.97108266 -0.71943121 -0.33716002
H -1.03455403 0.84850337 1.33173697
H -0.56023824 -1.71206673 1.15707697
O 0.12451809 -0.24109969 -3.19570145
H -0.35781036 -0.81227112 -3.80189685
H 0.67026262 0.32736265 -3.74819747
