17

N -0.12245916 0.13476088 -0.20371629
C -1.05877621 0.83947639 0.75066086
C -0.53328504 -1.29270892 -0.47780942
C 1.32695385 0.26030098 0.19889416
H -0.21302216 0.63264795 -1.10519415
H -2.06834868 0.78773206 0.33598772
H -0.74773069 1.88402430 0.82487820
H 0.13460800 -1.69983457 -1.24067881
H -1.55862351 -1.28492770 -0.85491445
H 1.56658105 1.32267008 0.28416634
H 1.47078765 -0.25258524 1.15248076
H 1.93923911 -0.19026100 -0.58581601
H -1.00691109 0.34416584 1.72273205
H -0.46081143 -1.86196346 0.45143370
O -0.74113720 1.52617068 -2.72404878
H -0.90078965 1.11874120 -3.58119719
H -0.80177484 2.47590053 -2.86866867
