17

N 0.15803430 0.13738466 -0.01436059
C -0.89524129 0.95714718 0.69397618
C -0.41642757 -1.05589522 -0.73779182
C 1.31788480 -0.22348961 0.88455877
H 0.55134448 0.75515581 -0.74400424
H -1.65029269 1.25050297 -0.03904354
H -0.41321743 1.84939469 1.10053330
H 0.39067142 -1.53962184 -1.29278816
H -1.17635046 -0.69808337 -1.43651841
H 1.73693946 0.70300516 1.28436798
H 0.95252968 -0.86892596 1.68634489
H 2.07156085 -0.73474685 0.28128583
H -1.33442209 0.35049180 1.48912587
H -0.84928919 -1.73682827 -0.00172559
O 1.46727989 2.24780060 -1.56484331
H 2.36918229 2.24750676 -1.90074813
H 1.07050356 3.06740146 -1.87622902
