17

N 0.06330171 0.14670781 -0.21135198
C -0.98509140 0.93168585 0.54316959
C -0.40536803 -1.23825869 -0.59278290
C 1.40357741 0.14060913 0.48448167
H 0.20657048 0.65216674 -1.10194038
H -1.88874499 0.96861270 -0.06983963
H -0.60762682 1.94531292 0.69654665
H 0.36712244 -1.70145932 -1.21127812
H -1.32643969 -1.13914776 -1.17168373
H 1.71200616 1.17680340 0.64190198
H 1.30171159 -0.38672305 1.43547460
H 2.12333195 -0.36101107 -0.16671752
H -1.17662177 0.43522684 1.49694874
H -0.57531137 -1.81431822 0.31953039
O 0.19636330 1.62824650 -2.75643040
H -0.30755480 1.43728772 -3.55392100
H 0.74946383 2.38645850 -2.96996793
