17

N 0.03454689 0.03759901 -0.27665985
C -0.96750083 0.96049742 0.37157616
C -0.48105156 -1.37549198 -0.42915598
C 1.39497176 0.09403204 0.38212076
H 0.17586994 0.39018138 -1.23837459
H -1.88810910 0.93179136 -0.21569640
H -0.55731405 1.97301044 0.35818571
H 0.25954584 -1.94715771 -0.99348713
H -1.41917111 -1.33861089 -0.98792293
H 1.73201457 1.13311440 0.37997507
H 1.30749938 -0.28864771 1.40128607
H 2.08252095 -0.51380681 -0.21100228
H -1.14415018 0.62216320 1.39500476
H -0.63316451 -1.80234607 0.56461754
O 1.13957754 0.39787248 -2.95001210
H 0.85108758 -0.03642830 -3.75896708
H 1.83732689 1.00653777 -3.21229772
