17

N -0.17060133 0.12510879 -0.11050456
C -1.05038797 0.73568730 0.95431678
C -0.54316340 -1.30362415 -0.42993703
C 1.30225008 0.29540499 0.17775949
H -0.35422139 0.66498793 -0.97287959
H -2.08854027 0.65917270 0.62213620
H -0.77782277 1.78843871 1.05977292
H 0.07039131 -1.63507634 -1.27092097
H -1.59783273 -1.32563576 -0.71430116
H 1.50362773 1.36156981 0.30506476
H 1.54895495 -0.26246092 1.08372170
H 1.86311793 -0.08133376 -0.68080809
H -0.89534097 0.19441156 1.89022668
H -0.36266433 -1.91923927 0.45399684
O -0.67454053 1.62294367 -2.60085118
H -1.08693621 1.28095454 -3.40033541
H -0.46179008 2.54300019 -2.78726739
