17

N -0.04158772 -0.17599537 -0.26824157
C -0.98011822 0.90732984 0.20430823
C -0.56948431 -1.56626676 -0.00275590
C 1.37289433 0.01606921 0.22765984
H 0.00716948 -0.08483358 -1.29697672
H -1.95045597 0.74951861 -0.27229949
H -0.57276352 1.87156371 -0.10827116
H 0.11614720 -2.28310456 -0.46065385
H -1.55374887 -1.65190306 -0.46885868
H 1.71041026 1.00885545 -0.07862115
H 1.37899179 -0.08295079 1.31534844
H 2.00253898 -0.74418423 -0.24077505
H -1.06255738 0.84986113 1.29196762
H -0.63188048 -1.71716334 1.07727442
O 0.48168969 -0.28873713 -3.15373599
H 0.02827129 -0.83743814 -3.80149112
H 1.11517344 0.23757902 -3.65173788
