17

N -0.13727174 0.20497306 -0.12243979
C -1.05163088 0.75976446 0.94427275
C -0.53978772 -1.17872207 -0.57568675
C 1.32269570 0.29657670 0.25208654
H -0.26000471 0.81790121 -0.94602459
H -2.07284083 0.74856449 0.55605533
H -0.75053432 1.78960184 1.14992095
H 0.10681771 -1.46611151 -1.40816952
H -1.57749481 -1.13723143 -0.91480103
H 1.55225177 1.34007644 0.48005889
H 1.50230444 -0.34344887 1.11880039
H 1.91555711 -0.02859934 -0.60619631
H -0.96410809 0.13856726 1.83833117
H -0.42863650 -1.86825001 0.26409348
O -0.72053863 1.84897072 -2.50010273
H -1.07856706 1.52582756 -3.33303543
H -0.59371142 2.79584948 -2.61797334
