17

N -0.27714318 -0.13905257 -0.15473415
C -1.18149601 0.58955899 0.81320030
C -0.37130730 -1.63964700 -0.02689605
C 1.14666461 0.36541246 -0.11581402
H -0.63199884 0.09225744 -1.09786812
H -2.20141118 0.22671470 0.66639355
H -1.13763273 1.65609124 0.57998668
H 0.23482093 -2.08804958 -0.81756325
H -1.41669298 -1.92812349 -0.15966437
H 1.13183558 1.44015521 -0.31156481
H 1.56725220 0.15153521 0.86924576
H 1.71063196 -0.14226616 -0.90186279
H -0.83709274 0.39334975 1.83099124
H -0.00627979 -1.93055634 0.96059186
O -1.32835349 1.07205186 -2.60871508
H -2.21910660 0.99632120 -2.96530361
H -0.83200045 1.59244708 -3.24828314
