17

N 0.06770028 0.19646143 -0.28288745
C -0.97719538 0.97479421 0.47918245
C -0.39738243 -1.18764621 -0.66921551
C 1.41228927 0.18893090 0.40764903
H 0.21311602 0.70331467 -1.17222814
H -1.88628169 1.00864171 -0.12571055
H -0.60230879 1.98934499 0.63298415
H 0.37669286 -1.64561773 -1.28945729
H -1.31958259 -1.08872629 -1.24654948
H 1.71536634 1.22473791 0.57531398
H 1.31849243 -0.35044385 1.35270724
H 2.13096264 -0.29817931 -0.25594453
H -1.15945978 0.47493750 1.43312181
H -0.56449894 -1.76712661 0.24137580
O 1.02239194 1.28976849 -2.82832188
H 0.89781677 0.90488173 -3.70146641
H 1.47638106 2.12623645 -2.97136321
