17

N 0.09854207 0.17536858 -0.13788907
C -0.98342931 0.94727860 0.57811767
C -0.37655410 -1.16554298 -0.64563950
C 1.37648211 0.07856696 0.66242239
H 0.33500454 0.72819965 -0.97880438
H -1.83123648 1.05648244 -0.10230327
H -0.58855789 1.93413546 0.83120034
H 0.43125138 -1.61627753 -1.22679351
H -1.24260221 -0.99838461 -1.29023490
H 1.69867435 1.09154762 0.91373241
H 1.18237793 -0.50611836 1.56409363
H 2.13386979 -0.39991875 0.03679559
H -1.26955531 0.39634467 1.47670886
H -0.63957652 -1.79055435 0.21042834
O 1.05716312 1.57655788 -2.54018854
H 1.10278502 1.21495471 -3.43097166
H 1.36605150 2.48556000 -2.60853442
