17

  N      0.04643     0.13661    -0.28547
  C     -0.96700     0.98237     0.42737
  C     -0.45945    -1.24739    -0.56013
  C      1.37929     0.12742     0.42213
  H      0.19430     0.57970    -1.20094
  H     -1.93153     0.86734    -0.06514
  H     -0.63807     2.02008     0.40221
  H      0.31357    -1.80237    -1.09051
  H     -1.35967    -1.17819    -1.16929
  H      1.42281     0.96664     1.11380
  H      1.45432    -0.79780     0.99284
  H      2.18009     0.17698    -0.31323
  H     -1.03678     0.63150     1.45709
  H     -0.68273    -1.72360     0.39403
  O      0.83974     2.88533    -2.48890
  H      0.38181     2.03996    -2.57792
  H      1.08737     3.07973    -3.37875
