17

N 0.00521491 0.12246020 -0.28495674
C -1.01265169 0.93533734 0.48182158
C -0.45169281 -1.29405193 -0.54150741
C 1.38681863 0.19258579 0.32048875
H 0.07787642 0.56891543 -1.21462374
H -1.95150839 0.91703248 -0.07686692
H -0.64835730 1.96312394 0.54799494
H 0.29091871 -1.78247281 -1.17683853
H -1.41066325 -1.25306855 -1.06345473
H 1.67642967 1.24380044 0.39039365
H 1.36062135 -0.27376731 1.30777272
H 2.07674307 -0.33319126 -0.34392595
H -1.13620360 0.49722203 1.47466436
H -0.54812786 -1.80934108 0.41680564
O -0.15389574 1.50550788 -2.87605294
H -0.42221188 1.12545381 -3.71855491
H 0.08518974 2.41876360 -3.06396977
