17

N 0.04163197 0.20554786 -0.49220497
C -0.91643811 1.10524694 0.25458410
C -0.44426853 -1.22346025 -0.57915801
C 1.46215321 0.31082143 0.01321466
H 0.06090011 0.55885379 -1.46233870
H -1.89250098 1.04831149 -0.23259027
H -0.53724119 2.12843618 0.20631019
H 0.25301164 -1.78591859 -1.20459013
H -1.43543517 -1.22175673 -1.03866696
H 1.76593524 1.35926598 -0.02689597
H 1.48482777 -0.06706768 1.03809622
H 2.10407447 -0.28660821 -0.63833136
H -0.97390299 0.75407765 1.28772005
H -0.48124403 -1.63202198 0.43294338
O 0.07431317 -0.73090683 2.80407006
H -0.14776275 -1.59593834 3.15872811
H 0.30644617 -0.18257271 3.55829960
