17

N 0.03314325 0.17428167 -0.21439554
C -1.01139801 0.94303393 0.55714162
C -0.42738472 -1.21024412 -0.60644123
C 1.38128521 0.16813788 0.47082351
H 0.17447966 0.68551105 -1.10207163
H -1.92426483 0.97519548 -0.04232748
H -0.64115786 1.95867020 0.71452320
H 0.34668289 -1.66201512 -1.23112386
H -1.35118945 -1.11138425 -1.18131335
H 1.68023947 1.20439524 0.64333788
H 1.29496087 -0.37898902 1.41210699
H 2.09859167 -0.30980174 -0.20091241
H -1.18526966 0.43717663 1.50956792
H -0.59040858 -1.79507202 0.30154711
O 1.18932855 1.08737514 -2.73180928
H 1.16952621 0.61110677 -3.56774189
H 1.61352533 1.93082228 -2.91877157
