17

N 0.27740717 0.30396547 0.09314295
C -0.82173584 0.95069248 0.90416720
C -0.24463890 -0.72450185 -0.88265302
C 1.40576047 -0.21947718 0.94830877
H 0.68206502 1.05996002 -0.48450155
H -1.54336835 1.38821447 0.21025124
H -0.37643126 1.74025034 1.51399321
H 0.59310726 -1.07425351 -1.49033191
H -0.98460098 -0.23961472 -1.52391500
H 1.79047997 0.60807737 1.54880897
H 1.02162868 -1.02102580 1.58320696
H 2.19372718 -0.58686013 0.28680555
H -1.29050868 0.18809533 1.52991944
H -0.69109361 -1.54679568 -0.31954446
O 0.97188822 2.51456099 -1.71191754
H 1.35222635 2.44648480 -2.59334402
H 0.88858729 3.45653760 -1.53320680
