17

N 0.07983087 -0.18156067 -0.20266324
C -0.84202047 0.97702844 0.09107895
C -0.60127899 -1.52249268 -0.06379080
C 1.38089641 -0.10488140 0.56341095
H 0.33692728 -0.09770285 -1.20063738
H -1.71194578 0.89573169 -0.56484051
H -0.30607762 1.90344098 -0.12722670
H 0.10144833 -2.29481497 -0.38497309
H -1.47701538 -1.52944231 -0.71685431
H 1.85131150 0.85592503 0.34257220
H 1.16598817 -0.20115856 1.62994851
H 2.02677123 -0.91537379 0.21720275
H -1.13726267 0.93235147 1.14168036
H -0.88938700 -1.66275885 0.98045255
O 1.15421628 -0.27587122 -2.93592723
H 0.84064028 -0.81980530 -3.66545858
H 1.87764755 0.24958498 -3.29183441
