17

N -0.03092402 -0.02252403 -0.24951385
C -1.01131308 0.91851837 0.40806498
C -0.51330835 -1.45434997 -0.26593602
C 1.37079741 0.11550250 0.29726253
H 0.02420538 0.26864157 -1.24005195
H -1.97059649 0.82562930 -0.10656252
H -0.63397606 1.93745886 0.29532634
H 0.20045621 -2.04737085 -0.84276182
H -1.48991232 -1.48015200 -0.75477567
H 1.68002859 1.15725747 0.18498020
H 1.36833655 -0.18231600 1.34809204
H 2.02972980 -0.52608772 -0.29259650
H -1.10354093 0.64804332 1.46230486
H -0.58077086 -1.81291374 0.76347569
O 0.40782202 0.55650824 -3.10084925
H -0.01628753 0.12273904 -3.84791445
H 0.99375369 1.21972564 -3.47935460
