17

N -0.05683161 -0.05754602 -0.25036773
C -1.03385038 0.88674415 0.40949543
C -0.50576024 -1.49848386 -0.19393523
C 1.36066218 0.13311963 0.23477826
H -0.04941182 0.19751868 -1.25219329
H -2.00957707 0.75235262 -0.06310560
H -0.68609755 1.90893639 0.24274173
H 0.19996493 -2.09814686 -0.77389750
H -1.49874162 -1.56430216 -0.64449015
H 1.63928234 1.17690868 0.07289961
H 1.40589138 -0.12550020 1.29497699
H 2.01228260 -0.51500165 -0.35594730
H -1.07850065 0.65600538 1.47603395
H -0.52705816 -1.81762272 0.85035252
O 0.00830228 0.64608695 -3.11348194
H -0.42200095 0.17477813 -3.83392356
H 0.46594435 1.38846286 -3.52074618
