17

N -0.00741047 0.25984560 -0.14467022
C -1.07184670 0.81872027 0.77167997
C -0.37635405 -1.08529239 -0.72002499
C 1.36789324 0.27301634 0.48215290
H 0.04384606 0.91158796 -0.94551260
H -2.01299597 0.85799732 0.21865662
H -0.77521439 1.83072285 1.05755669
H 0.39301159 -1.37025330 -1.44148007
H -1.33701329 -0.98623218 -1.23063115
H 1.59345875 1.29875233 0.78318589
H 1.36680332 -0.39830437 1.34372025
H 2.08853251 -0.05547800 -0.27064184
H -1.15730473 0.17074241 1.64664433
H -0.43790224 -1.80983937 0.09493202
O 0.29737519 2.54824765 -1.94382159
H -0.37131033 2.96991320 -2.49303922
H 1.12093150 3.01016366 -2.12951699
