17

N -0.00990528 -0.04203836 -0.26135124
C -0.97971452 0.94467766 0.34117986
C -0.53477855 -1.45973688 -0.25633031
C 1.37864680 0.06766651 0.32597849
H 0.08639701 0.21777609 -1.25756416
H -1.92564218 0.86675731 -0.19968957
H -0.56826217 1.94885325 0.21462934
H 0.17854184 -2.08676222 -0.79664970
H -1.49704831 -1.47008824 -0.77351641
H 1.71813921 1.09939453 0.20957490
H 1.33699084 -0.21526335 1.37996227
H 2.03686048 -0.59929808 -0.23593874
H -1.11120426 0.70529878 1.39869795
H -0.64243059 -1.78991987 0.77914387
O 0.81801603 0.15045656 -3.05819424
H 0.45040971 -0.32875052 -3.80756034
H 1.48948393 0.73528682 -3.42318196
