17

N 0.01008991 0.25946194 -0.22504936
C -1.03564818 0.91428998 0.64655013
C -0.40466137 -1.10970492 -0.70887183
C 1.38342022 0.26677727 0.40341323
H 0.08354356 0.85005954 -1.07039355
H -1.97214359 0.95215539 0.08530533
H -0.70425091 1.93072351 0.87139647
H 0.35633643 -1.46980339 -1.40530729
H -1.36003085 -1.01323703 -1.22963584
H 1.64489622 1.30068299 0.64002936
H 1.35813688 -0.34773678 1.30607357
H 2.09319557 -0.13315608 -0.32468596
H -1.14837455 0.32656461 1.56020772
H -0.49329480 -1.77375104 0.15379815
O 0.26861199 2.03241188 -2.56659231
H -0.34005235 2.10939913 -3.30824741
H 0.98472584 2.64917301 -2.74880041
