17

N 0.18635590 0.12594193 -0.08491620
C -0.89699937 1.00424895 0.49608785
C -0.35051997 -1.16580315 -0.65380144
C 1.33848520 -0.08911749 0.86787224
H 0.57601778 0.65085097 -0.88596910
H -1.63898805 1.19016177 -0.28399805
H -0.44290264 1.94956380 0.80208563
H 0.47582841 -1.69980284 -1.12851364
H -1.10661489 -0.92022584 -1.40320983
H 1.72512228 0.88925692 1.16241029
H 0.97663136 -0.64620071 1.73458732
H 2.11742422 -0.64479081 0.34053401
H -1.34452114 0.48978237 1.34937828
H -0.78055077 -1.75382124 0.16006480
O 1.35343078 1.73141419 -2.26721599
H 1.82506874 1.40686368 -3.04081025
H 1.33742216 2.68987748 -2.35244592
