8

Cl -0.07824109 -0.05113737 1.51791094
Cl -0.51696955 1.59467642 -0.81442164
Cl -0.01711593 -1.23444544 -1.11382214
Cl 2.11648314 0.52843608 -0.27496988
C 0.37847197 0.21045072 -0.17100027
O -2.71423448 -1.58111258 3.03826158
H -2.76891905 -2.53356416 3.11722516
H -2.77249502 -1.35165366 2.11042625
