10

Cl -1.73055170 0.06177448 1.43523427
Cl -0.31849339 1.30206553 -0.75927777
Cl -0.36805822 -1.57799472 -0.51560847
Cl 1.15769500 0.00499049 1.36028588
C -0.31461880 -0.05201926 0.37961002
Cl 2.93665991 -0.46516310 -1.90124838
Cl 2.24212129 1.86851207 -3.46292760
Cl 3.25740342 -0.49864561 -4.77174200
Cl 5.01264777 1.11603437 -3.13888122
C 3.36136473 0.50525575 -3.31806472
