8

Cl -0.65173737 -0.54847508 1.27259049
Cl -1.59711831 1.64307644 -0.36328741
Cl -0.13622015 -0.54569428 -1.56605947
Cl 1.23310627 1.32721384 0.14758013
C -0.29138248 0.47190819 -0.12823953
O 2.57422601 -2.17939884 0.26186249
H 1.68564857 -2.26832349 0.60637730
H 2.68425746 -1.28254677 -0.05417400
