8

Cl -0.36862629 -0.56954958 1.62359464
Cl -0.64689802 1.27103493 -0.58549854
Cl 0.50997328 -1.33660201 -1.01411902
Cl 1.97919354 0.66630198 0.46872532
C 0.37190621 0.01016884 0.12462153
O -3.09768305 -1.59162405 -0.75803286
H -2.44341264 -1.95206143 -0.15939754
H -2.67747304 -0.91601868 -1.29028353
