10

Cl -1.64115305 0.26755924 0.19219742
Cl -1.77064210 1.87384594 -2.20504169
Cl -0.08552057 -0.47106793 -2.13166253
Cl 0.63055537 1.87348691 -0.60004605
C -0.71577514 0.88489315 -1.18455493
Cl 3.01945988 -1.36556394 3.54549199
Cl 1.00172520 0.60642929 2.92722951
Cl 1.54684110 -1.54025497 1.06701589
Cl 3.48788929 0.56752049 1.45055565
C 2.26279000 -0.43203817 2.24619475
