8

 Cl     -0.90018    -0.50746     1.43599
 Cl     -0.71358     1.48267    -0.64981
 Cl     -0.07410    -1.27569    -1.22378
 Cl      1.68789     0.30045     0.43751
  C     -0.00009     0.00008     0.00027
  O      1.40372     1.58956    -1.61489
  H      0.94578     0.74419    -1.70390
  H      1.65134     1.78396    -2.50474
