8

Cl -1.56180888 0.30535481 1.15983261
Cl -0.20324678 1.62129441 -1.03022823
Cl -0.49812160 -1.25774062 -1.02179255
Cl 1.29289508 0.00959732 0.85071223
C -0.24278709 0.17287198 -0.01337199
O -0.24977005 -3.08527791 2.16419843
H -0.88062911 -2.36654767 2.20700886
H 0.47044842 -2.81790232 1.59325063
