8

Cl -1.19793997 -0.19188536 1.23883568
Cl -0.71467870 1.93447550 -0.66350172
Cl -0.45678706 -0.83057845 -1.47416440
Cl 1.48755734 0.33100893 0.31179910
C -0.22159722 0.31510253 -0.14738680
O 0.85617212 -3.32034544 0.85432850
H -0.04436171 -2.99556249 0.84134386
H 1.41861520 -2.66056523 0.44835578
