10

 Cl     -0.90018    -0.50746     1.43599
 Cl     -0.71358     1.48267    -0.64981
 Cl     -0.07410    -1.27569    -1.22378
 Cl      1.68789     0.30045     0.43751
  C     -0.00009     0.00008     0.00027
 Cl      0.64708     0.44548    -2.50261
 Cl      0.83368     2.43562    -4.58841
 Cl      1.47316    -0.32275    -5.16238
 Cl      3.23514     1.25339    -3.50108
  C      1.54717     0.95302    -3.93832
