10

 Cl     -0.90018    -0.50746     1.43599
 Cl     -0.71358     1.48267    -0.64981
 Cl     -0.07410    -1.27569    -1.22378
 Cl      1.68789     0.30045     0.43751
  C     -0.00009     0.00008     0.00027
 Cl     -0.85292    -0.55452     3.49739
 Cl     -0.66632     1.43562     1.41159
 Cl     -0.02684    -1.32275     0.83762
 Cl      1.73514     0.25339     2.49892
  C      0.04717    -0.04698     2.06168
