8

Cl -0.19487541 -0.35545479 1.73962028
Cl -0.22323052 1.62356550 -0.36162323
Cl -0.31799250 -1.18573701 -1.02008845
Cl 2.11780315 -0.03170430 0.03119196
C 0.34978594 0.01263025 0.09668028
O -3.57304308 -0.01437450 0.26992833
H -3.00989890 -0.68837440 0.65086436
H -3.02156868 0.72109926 0.00303648
