8

Cl -0.81014412 -0.35282076 1.94976332
Cl -1.09744407 1.40871132 -0.32796404
Cl -0.64138852 -1.41268632 -0.73680461
Cl 1.47735317 0.25705062 0.28817595
C -0.26859226 -0.02529932 0.29697559
O 1.03005492 0.66668735 -3.31559000
H 0.96900313 -0.21106941 -2.93843666
H 0.46813775 1.25107651 -2.80650954
