8

 Cl     -0.90018    -0.50746     1.43599
 Cl     -0.71358     1.48267    -0.64981
 Cl     -0.07410    -1.27569    -1.22378
 Cl      1.68789     0.30045     0.43751
  C     -0.00009     0.00008     0.00027
  O     -0.09628     0.58956     3.38511
  H     -0.55422    -0.25581     3.29610
  H      0.15134     0.78396     2.49526
