8

Cl -0.80610109 -0.58296372 1.30242052
Cl -0.36044540 1.43444509 -0.71624765
Cl 0.56646451 -1.26473383 -1.14010947
Cl 1.86762543 0.41412235 0.82350863
C 0.32024259 0.00205781 0.06970135
O -2.99910825 -1.03325748 -1.77339230
H -2.56451693 -1.53693005 -1.08496638
H -2.39718086 -0.35109017 -2.07130471
