10

 Cl     -0.90018    -0.50746     1.43599
 Cl     -0.71358     1.48267    -0.64981
 Cl     -0.07410    -1.27569    -1.22378
 Cl      1.68789     0.30045     0.43751
  C     -0.00009     0.00008     0.00027
 Cl      0.14708    -0.05452     2.99739
 Cl      0.33368     1.93562     0.91159
 Cl      0.97316    -0.82275     0.33762
 Cl      2.73514     0.75339     1.99892
  C      1.04717     0.45302     1.56168
