10

 Cl     -0.90018    -0.50746     1.43599
 Cl     -0.71358     1.48267    -0.64981
 Cl     -0.07410    -1.27569    -1.22378
 Cl      1.68789     0.30045     0.43751
  C     -0.00009     0.00008     0.00027
 Cl     -0.35292    -1.55452     2.99739
 Cl     -0.16632     0.43562     0.91159
 Cl      0.47316    -2.32275     0.33762
 Cl      2.23514    -0.74661     1.99892
  C      0.54717    -1.04698     1.56168
