10

Cl -0.53808380 -0.54952853 2.02643180
Cl -0.76384158 1.36620889 -0.12290742
Cl -0.12364438 -1.39639377 -0.70338674
Cl 1.82487134 0.29852036 0.59696545
C 0.09992739 -0.06977420 0.44688900
Cl -1.13620162 0.52833436 -3.77014613
Cl 0.32960467 2.65147886 -5.06808877
Cl 0.96789162 -0.10811519 -5.64360881
Cl 1.62829711 1.02118230 -3.06852181
C 0.44734924 1.02289693 -4.38624656
