8

Cl -1.65188637 -0.14767938 0.50763358
Cl -0.22814394 1.65950088 -1.24263988
Cl 0.07435448 -1.20124817 -1.55834716
Cl 1.20491783 0.12596372 0.74682862
C -0.14948588 0.11015031 -0.39101678
O -0.31630476 -0.97136342 3.93616332
H -0.42994686 -1.91730470 3.84494695
H -0.37652449 -0.57636924 3.06604136
