8

Cl -0.29796833 -0.28668040 1.62442241
Cl -0.58719940 1.54087842 -0.59309879
Cl 0.34017269 -1.15326302 -1.05181120
Cl 2.05144355 0.75111386 0.29335233
C 0.37957747 0.21563432 0.06948887
O -3.10762062 -2.22937105 -0.20946815
H -2.82228754 -2.99146269 0.29434834
H -2.32913783 -1.76519944 -0.51762381
