8

 Cl     -0.90018    -0.50746     1.43599
 Cl     -0.71358     1.48267    -0.64981
 Cl     -0.07410    -1.27569    -1.22378
 Cl      1.68789     0.30045     0.43751
  C     -0.00009     0.00008     0.00027
  O     -2.05422    -0.75581    -1.20390
  H     -2.51215    -1.60118    -1.29292
  H     -1.80659    -0.56141    -2.09375
