10

Cl 0.63459397 0.46764474 1.82831375
Cl -0.60008956 1.94563502 -0.32806670
Cl 1.57836935 0.12653462 -0.88511479
Cl 2.08237392 2.59797189 0.52322812
C 0.92293993 1.28248616 0.28429907
Cl -1.88185645 -2.30207896 2.38895339
Cl -1.79097573 -1.58458503 -0.40881776
Cl -2.20683821 -4.33637955 0.36269574
Cl 0.37322392 -3.10218179 0.76470928
C -1.37557112 -2.83023710 0.77717991
