10

 Cl     -0.90018    -0.50746     1.43599
 Cl     -0.71358     1.48267    -0.64981
 Cl     -0.07410    -1.27569    -1.22378
 Cl      1.68789     0.30045     0.43751
  C     -0.00009     0.00008     0.00027
 Cl     -1.85292    -1.05452     2.99739
 Cl     -1.66632     0.93562     0.91159
 Cl     -1.02684    -1.82275     0.33762
 Cl      0.73514    -0.24661     1.99892
  C     -0.95283    -0.54698     1.56168
