10

 Cl     -0.90018    -0.50746     1.43599
 Cl     -0.71358     1.48267    -0.64981
 Cl     -0.07410    -1.27569    -1.22378
 Cl      1.68789     0.30045     0.43751
  C     -0.00009     0.00008     0.00027
 Cl     -0.35292     0.44548     2.99739
 Cl     -0.16632     2.43562     0.91159
 Cl      0.47316    -0.32275     0.33762
 Cl      2.23514     1.25339     1.99892
  C      0.54717     0.95302     1.56168
