10

Cl -1.43345947 -1.44759047 1.56808713
Cl -1.21234958 0.50580057 -0.54823099
Cl -0.66136975 -2.27696502 -1.09115342
Cl 1.16763500 -0.73951509 0.53171192
C -0.53424050 -0.98843522 0.11476656
Cl 1.17556453 3.00533828 0.90274328
Cl 1.40644677 4.92478823 -1.24308355
Cl 1.96686043 2.13574716 -1.74248461
Cl 3.77954918 3.70451811 -0.13151484
C 2.08153338 3.44112347 -0.55346148
