10

 Cl     -0.90018    -0.50746     1.43599
 Cl     -0.71358     1.48267    -0.64981
 Cl     -0.07410    -1.27569    -1.22378
 Cl      1.68789     0.30045     0.43751
  C     -0.00009     0.00008     0.00027
 Cl      1.14708    -1.05452     1.99739
 Cl      1.33368     0.93562    -0.08841
 Cl      1.97316    -1.82275    -0.66238
 Cl      3.73514    -0.24661     0.99892
  C      2.04717    -0.54698     0.56168
