10

 Cl     -0.90018    -0.50746     1.43599
 Cl     -0.71358     1.48267    -0.64981
 Cl     -0.07410    -1.27569    -1.22378
 Cl      1.68789     0.30045     0.43751
  C     -0.00009     0.00008     0.00027
 Cl     -2.35292    -0.05452    -0.00261
 Cl     -2.16632     1.93562    -2.08841
 Cl     -1.52684    -0.82275    -2.66238
 Cl      0.23514     0.75339    -1.00108
  C     -1.45283     0.45302    -1.43832
