10

Cl -1.61228136 -2.12226952 1.93692678
Cl -2.08994510 -0.15922855 -0.12762183
Cl -0.99721671 -2.74275405 -0.81828879
Cl 0.61995898 -0.83696769 0.63094335
C -1.01965974 -1.46406789 0.40510055
Cl -0.27841321 2.83638619 1.09839780
Cl -0.27943277 4.83005490 -0.99119602
Cl 0.60310872 2.14124537 -1.57052522
Cl 2.22330831 3.86553845 0.08756082
C 0.56674289 3.41687279 -0.34391744
