10

Cl -1.47761609 -0.22700989 1.94296091
Cl -0.80885625 1.29564648 -0.42410602
Cl -0.58926934 -1.58465045 -0.44988488
Cl 1.27591779 -0.00830948 1.09235109
C -0.40129413 -0.13076335 0.54113033
Cl 2.20681450 -0.06921671 -2.51270892
Cl 2.08743734 2.05105108 -4.47070258
Cl 2.85078190 -0.61905622 -5.27314874
Cl 4.64457482 0.97261081 -3.65925679
C 2.94767947 0.58450772 -3.97925440
