8

Cl -0.63588246 -0.86798071 1.96948507
Cl -0.72499773 1.40296811 0.18008363
Cl -0.14480544 -1.21992447 -0.85911994
Cl 1.80337746 0.14062293 0.78527046
C 0.07544032 -0.13735890 0.52296697
O -1.07327025 1.17270127 -3.54130588
H -1.15749667 0.87052756 -2.63672679
H -0.14158522 1.25620421 -3.74400352
