10

 Cl     -0.90018    -0.50746     1.43599
 Cl     -0.71358     1.48267    -0.64981
 Cl     -0.07410    -1.27569    -1.22378
 Cl      1.68789     0.30045     0.43751
  C     -0.00009     0.00008     0.00027
 Cl      1.64708     0.94548    -1.50261
 Cl      1.83368     2.93562    -3.58841
 Cl      2.47316     0.17725    -4.16238
 Cl      4.23514     1.75339    -2.50108
  C      2.54717     1.45302    -2.93832
