10

Cl 0.48502226 -1.18707838 0.84036026
Cl 0.69371806 0.82846708 -1.22759460
Cl 0.82113627 -1.97281874 -1.91891005
Cl 3.00830350 -0.73511896 -0.48943146
C 1.25119059 -0.76576921 -0.69840394
Cl -3.00584191 1.94016037 3.31251264
Cl -2.77290435 3.74367047 1.06528666
Cl -2.58704147 0.89161499 0.65386620
Cl -0.45375468 2.30293452 2.00979534
C -2.20365827 2.21874786 1.75989897
