10

 Cl     -0.90018    -0.50746     1.43599
 Cl     -0.71358     1.48267    -0.64981
 Cl     -0.07410    -1.27569    -1.22378
 Cl      1.68789     0.30045     0.43751
  C     -0.00009     0.00008     0.00027
 Cl     -1.35292    -2.05452     2.49739
 Cl     -1.16632    -0.06438     0.41159
 Cl     -0.52684    -2.82275    -0.16238
 Cl      1.23514    -1.24661     1.49892
  C     -0.45283    -1.54698     1.06168
