10

Cl -0.06836169 1.08325294 1.30583492
Cl 0.08906350 2.88277952 -0.94841939
Cl 0.63012620 0.06864121 -1.31390295
Cl 2.49872836 1.71971330 0.14453559
C 0.78665354 1.43724456 -0.20279650
Cl -2.61521009 -3.45309648 2.22862886
Cl -2.47157471 -1.52333591 0.08460990
Cl -1.82953580 -4.29299424 -0.42331845
Cl -0.04433298 -2.67326981 1.16790394
C -1.73938632 -2.98412509 0.76430407
