8

 Cl     -0.90018    -0.50746     1.43599
 Cl     -0.71358     1.48267    -0.64981
 Cl     -0.07410    -1.27569    -1.22378
 Cl      1.68789     0.30045     0.43751
  C     -0.00009     0.00008     0.00027
  O     -1.05422     0.24419     3.29610
  H     -1.51215    -0.60118     3.20708
  H     -0.80659     0.43859     2.40625
