8

Cl -0.31503293 -0.43728147 1.72220080
Cl -0.41662396 1.54148148 -0.38066596
Cl -0.05539302 -1.24426704 -1.03439031
Cl 2.08394175 0.22595768 0.24432387
C 0.32880447 0.02246584 0.13905744
O -3.53961607 -0.52549495 -0.25063447
H -2.94054040 -1.08091906 0.24826598
H -3.01855984 0.07970752 -0.77854736
