8

Cl 0.00777432 -0.37382635 1.76293575
Cl -0.47514846 1.36732646 -0.48972611
Cl 0.56656814 -1.28943945 -0.91381314
Cl 2.23830338 0.73957908 0.29470435
C 0.58841060 0.11301975 0.16419259
O -3.00103350 -1.41556806 -0.19848522
H -2.28362395 -1.80885132 0.29841899
H -2.64047053 -0.71448012 -0.74157719
