10

Cl -2.35127742 0.75871672 1.93141963
Cl -1.48897910 2.26040127 -0.38350327
Cl -1.35057571 -0.62515816 -0.39705545
Cl 0.45634592 0.90723335 1.26750994
C -1.18244417 0.82453433 0.60432212
Cl 1.66189773 -2.59713599 0.85058589
Cl 2.15603094 -1.01385136 -1.52257456
Cl 2.73344517 -3.84438129 -1.52373212
Cl 4.37210065 -2.03397123 0.02304999
C 2.72962598 -2.37157765 -0.54264217
