8

Cl -0.46556439 0.79045883 1.44498456
Cl -0.82477478 1.30030563 -1.37748284
Cl 0.25342342 -1.22747517 -0.48038363
Cl 1.83917282 1.18226625 -0.25682451
C 0.20264859 0.51343222 -0.17030381
O -1.30015692 -2.74891465 2.50312107
H -2.25530467 -2.71653118 2.45252953
H -0.94866408 -1.97578192 2.06100962
