8

Cl -0.24387878 -0.41538092 1.64838188
Cl -0.15147404 1.53673085 -0.47849396
Cl 0.55382296 -1.21018161 -1.00642952
Cl 2.30756589 0.44683094 0.58971124
C 0.62056455 0.09098587 0.18979140
O -3.06215295 -0.83140937 -0.80348381
H -2.49503610 -1.32455918 -0.21063968
H -2.52863153 -0.17525660 -1.25218755
