8

Cl -1.01015304 -0.19968919 1.84544352
Cl -0.93817146 1.33845031 -0.60571698
Cl -0.62290065 -1.53015185 -0.69444191
Cl 1.47539982 0.11819698 0.39975171
C -0.27617046 -0.06836811 0.24047694
O 1.52376179 0.18051134 -3.24444215
H 1.49375975 -0.60815390 -2.70277960
H 0.98145425 0.85085442 -2.82868152
