10

 Cl     -0.90018    -0.50746     1.43599
 Cl     -0.71358     1.48267    -0.64981
 Cl     -0.07410    -1.27569    -1.22378
 Cl      1.68789     0.30045     0.43751
  C     -0.00009     0.00008     0.00027
 Cl     -2.35292     0.44548     0.49739
 Cl     -2.16632     2.43562    -1.58841
 Cl     -1.52684    -0.32275    -2.16238
 Cl      0.23514     1.25339    -0.50108
  C     -1.45283     0.95302    -0.93832
