10

Cl -2.05799613 0.27590273 1.91190624
Cl -1.59370553 2.10772795 -0.27527347
Cl -1.08457866 -0.71452771 -0.62072467
Cl 0.64150346 0.87443501 1.07613236
C -1.02245538 0.63503973 0.52254946
Cl 2.04398954 -2.53466049 0.43725527
Cl 2.46679186 -0.74413891 -1.79824854
Cl 3.04489995 -3.56100660 -2.07009864
Cl 4.72788444 -1.89181601 -0.41497456
C 3.06983645 -2.18214570 -0.96114344
