10

 Cl     -0.90018    -0.50746     1.43599
 Cl     -0.71358     1.48267    -0.64981
 Cl     -0.07410    -1.27569    -1.22378
 Cl      1.68789     0.30045     0.43751
  C     -0.00009     0.00008     0.00027
 Cl     -1.85292     1.44548     0.99739
 Cl     -1.66632     3.43562    -1.08841
 Cl     -1.02684     0.67725    -1.66238
 Cl      0.73514     2.25339    -0.00108
  C     -0.95283     1.95302    -0.43832
