10

Cl -0.35110197 -0.57238997 2.59969882
Cl -0.31747192 1.30175980 0.40238898
Cl 0.33107876 -1.48291976 -0.05575440
Cl 2.16140332 0.20865952 1.40403914
C 0.45518882 -0.13613287 1.08616203
Cl -2.67201440 -0.39542117 -2.00359271
Cl -2.74603915 1.50482219 -4.17825836
Cl -2.00759032 -1.24519700 -4.68343136
Cl -0.20898307 0.49240537 -3.23893342
C -1.90830007 0.08922391 -3.52493872
