8

Cl -0.85026376 -0.46979383 1.28194780
Cl -0.14858786 1.60987718 -0.59736378
Cl 0.44473424 -1.14692779 -1.20488302
Cl 1.92783489 0.22390346 0.86550346
C 0.34647287 0.05560158 0.08891325
O -3.05603355 -0.56465022 -1.78160678
H -2.66095039 -1.15340312 -1.13856032
H -2.37622645 0.02704273 -2.10434060
