10

Cl -0.20917088 -0.67806219 2.80957305
Cl -0.34078909 1.37351238 0.77963230
Cl 0.33162104 -1.34702910 0.05262864
Cl 2.21343864 0.26084599 1.54193367
C 0.49814619 -0.09745063 1.29477940
Cl -2.73230455 0.02528704 -1.73462397
Cl -2.63210096 2.10375765 -3.73866949
Cl -2.23121700 -0.65736002 -4.49602908
Cl -0.21044120 0.73098085 -2.96847651
C -1.95101218 0.55032803 -3.23336801
