10

Cl -0.36892163 -0.68832704 2.54060083
Cl -0.32684432 1.39321542 0.53692160
Cl 0.30334128 -1.33670145 -0.19227317
Cl 2.14618061 0.19335788 1.42188761
C 0.43771511 -0.10926081 1.07549977
Cl -2.69792884 0.04850926 -2.02584806
Cl -2.61560205 2.07168655 -4.08507263
Cl -2.08339299 -0.69064161 -4.74881690
Cl -0.16792276 0.82069149 -3.20144755
C -1.89045442 0.56228032 -3.51407151
