10

Cl 0.31188714 0.23429903 1.60624843
Cl 0.65351169 2.24760181 -0.44060876
Cl 1.13834345 -0.53508599 -1.05888170
Cl 2.95839445 0.90330816 0.66175828
C 1.26328235 0.71134797 0.19179446
Cl -4.57722069 -1.16506534 0.49744225
Cl -2.55322521 0.36092115 -0.88738882
Cl -3.77454964 -1.91782705 -2.17528163
Cl -1.96719573 -2.31564398 0.04258938
C -3.21705780 -1.25904574 -0.63029190
