8

Cl -0.42541347 -0.27301359 1.59356670
Cl 0.14997667 1.71434105 -0.42187194
Cl 0.00001426 -1.07477736 -1.14392482
Cl 2.22271049 -0.11316234 0.43828066
C 0.49121509 0.06349250 0.11783642
O -3.34824922 0.31103770 -0.67599347
H -2.91724704 -0.39001671 -0.18678489
H -2.67222678 0.87985873 -1.04445866
