10

 Cl     -0.90018    -0.50746     1.43599
 Cl     -0.71358     1.48267    -0.64981
 Cl     -0.07410    -1.27569    -1.22378
 Cl      1.68789     0.30045     0.43751
  C     -0.00009     0.00008     0.00027
 Cl     -0.35292    -2.55452     0.49739
 Cl     -0.16632    -0.56438    -1.58841
 Cl      0.47316    -3.32275    -2.16238
 Cl      2.23514    -1.74661    -0.50108
  C      0.54717    -2.04698    -0.93832
