10

Cl -1.23204076 -1.11316577 -0.56721299
Cl -0.50927133 1.60300134 -1.24606516
Cl -0.61761158 -0.42231523 -3.30370966
Cl 1.48706541 -0.48668875 -1.32763375
C -0.21760215 -0.10482476 -1.60937139
Cl 1.97173174 -0.48349117 4.42790639
Cl 0.48041050 0.70250752 2.25759712
Cl 1.32919424 -2.05767507 2.09285095
Cl 3.27965890 0.06986623 1.91222016
C 1.76463502 -0.44240433 2.67079835
