8

Cl -0.81035767 0.46116704 1.29121493
Cl -0.34008792 1.70772073 -1.27529005
Cl -0.20929822 -1.16953711 -1.01036210
Cl 1.84975821 0.48399048 0.16254555
C 0.12313106 0.37330895 -0.20903268
O -1.75474523 -2.41129615 3.13509102
H -2.36653308 -3.14047616 3.03439968
H -1.36488714 -2.22322778 2.28104365
