10

Cl -1.53767934 -0.71026163 2.23248785
Cl -1.17984757 1.20784104 0.09722544
Cl -0.61537465 -1.58661131 -0.36459824
Cl 1.12269216 -0.02395424 1.33102405
C -0.55404839 -0.27892750 0.82563588
Cl 1.73052383 0.68881573 -2.32258962
Cl 1.85344211 2.71344895 -4.37862232
Cl 2.52580219 -0.02773864 -5.00459787
Cl 4.29032932 1.55063874 -3.34520296
C 2.60033036 1.23155887 -3.76338222
