10

 Cl     -0.90018    -0.50746     1.43599
 Cl     -0.71358     1.48267    -0.64981
 Cl     -0.07410    -1.27569    -1.22378
 Cl      1.68789     0.30045     0.43751
  C     -0.00009     0.00008     0.00027
 Cl      1.14708    -1.55452     0.99739
 Cl      1.33368     0.43562    -1.08841
 Cl      1.97316    -2.32275    -1.66238
 Cl      3.73514    -0.74661    -0.00108
  C      2.04717    -1.04698    -0.43832
