10

Cl -0.29503495 1.54648881 0.40076974
Cl 0.66763772 2.71362283 -2.05972332
Cl 0.48600658 -0.15796314 -1.80361690
Cl 2.49072152 1.29932049 -0.31903827
C 0.83649655 1.34935487 -0.94516734
Cl -3.48669618 -3.41720510 0.81505564
Cl -3.03337075 -0.85006535 -0.42733063
Cl -1.71698164 -3.20751222 -1.45902812
Cl -0.92390780 -2.11538336 1.09865596
C -2.28870105 -2.39584783 0.00680324
