8

Cl -1.31243538 -0.25800219 1.73062906
Cl -0.73398302 1.38046454 -0.58448880
Cl -0.45624069 -1.48908075 -0.74304993
Cl 1.41498696 0.05497176 0.81669063
C -0.27441544 -0.07766225 0.30845928
O 2.06674762 0.20577142 -2.82454482
H 2.08179692 -0.51990150 -2.20057167
H 1.34052303 0.78508897 -2.59351374
