10

Cl -1.38311039 -2.04451644 1.64317112
Cl -1.76548819 0.08158439 -0.27491851
Cl -0.61177095 -2.42844333 -1.11656874
Cl 0.90494412 -0.64415036 0.57513410
C -0.71356072 -1.25736212 0.20646299
Cl -0.05952522 2.99479666 1.24995261
Cl -0.20207918 5.05956155 -0.76500396
Cl 0.95194961 2.49330611 -1.41551084
Cl 2.35399543 4.29963555 0.34993770
C 0.76081547 3.71039799 -0.14527649
