10

Cl 0.89814445 -0.78468356 1.51362954
Cl 1.34150536 0.88751607 -0.80510621
Cl -0.00552071 -1.65537599 -1.09011219
Cl 2.81959648 -1.57548105 -0.49145178
C 1.26205955 -0.78070330 -0.21770791
Cl -2.35059509 0.41938745 2.95617034
Cl -3.55271440 2.86878095 2.00984564
Cl -2.28309310 1.06904166 0.14096712
Cl -0.67863149 2.58218475 2.01192234
C -2.21458104 1.73414302 1.77922311
