10

Cl -1.64962715 -1.87547666 1.55088134
Cl -1.40658018 0.19948404 -0.44333889
Cl -0.72776448 -2.52774544 -1.11021670
Cl 0.96784186 -1.02031293 0.67687991
C -0.70334634 -1.30465671 0.16855640
Cl 0.82435626 2.66859357 1.28130812
Cl 1.04749854 4.77751075 -0.67913015
Cl 1.70282220 2.06062019 -1.40998756
Cl 3.43035731 3.52924325 0.37948014
C 1.75061198 3.25754993 -0.10705261
