10

Cl -0.15880988 -1.52080196 0.53293730
Cl -0.47403128 -0.17264526 -2.00562689
Cl 1.24818866 -2.48190380 -1.79831867
Cl 2.02866858 0.01404889 -0.57208291
C 0.65998683 -1.03894484 -0.95988917
Cl -2.92670477 3.66859215 1.56252794
Cl -2.01665681 3.13149057 -1.12590345
Cl -3.03059430 0.97858012 0.51652373
Cl -0.48092398 2.19457009 1.13576980
C -2.11295305 2.49182404 0.52144232
