10

Cl -1.61555334 -0.55498618 -0.15544656
Cl -1.37250265 1.77168829 -1.84969537
Cl -0.91671228 -0.86638087 -2.94152585
Cl 0.98820930 0.28471315 -1.10160140
C -0.72880863 0.15821531 -1.51104873
Cl 0.23179710 -1.77749873 4.38158031
Cl 0.78376016 0.42743816 2.60042868
Cl 1.13323889 -2.29696397 1.68648257
Cl 2.95666231 -1.17593381 3.62600223
C 1.27607913 -1.20548134 3.07220411
