8

Cl -1.40219361 -0.26342425 1.49148972
Cl -0.54847153 1.41307008 -0.70732159
Cl -0.24480881 -1.45156742 -0.87826146
Cl 1.41591432 0.06597923 0.92645524
C -0.19757509 -0.05869857 0.21149942
O 2.48234688 0.19911943 -2.61388624
H 2.47571634 -0.48608842 -1.94543049
H 1.64605150 0.66325992 -2.57493460
