8

Cl -1.56537094 -0.21280181 0.64521382
Cl -0.33988550 1.61051179 -1.23491721
Cl -0.03548534 -1.24606587 -1.58004893
Cl 1.29719523 0.09686118 0.60513877
C -0.16097075 0.06274819 -0.39567116
O 0.10292561 -0.53282586 4.02940010
H 0.29737469 -1.46672835 3.95148801
H -0.09500301 -0.19393926 3.15604660
