8

Cl -0.66035390 -0.37277547 1.38490029
Cl 0.38692434 1.72680216 -0.29732169
Cl 0.42626243 -1.00858603 -1.21136346
Cl 2.18936933 -0.17917675 0.92633812
C 0.58972533 0.04138175 0.20253576
O -2.97707785 0.32175902 -1.44423996
H -2.71989786 -0.31472472 -0.77695727
H -2.23417181 0.90308004 -1.60724178
