10

Cl 0.61814922 -0.31055142 3.02240706
Cl -1.50727846 0.91402682 1.49659934
Cl -0.20558854 -1.46969909 0.50810661
Cl 1.21859183 1.04598724 0.54305463
C 0.03066048 0.04539721 1.39128193
Cl -2.67108505 -0.10214046 -1.99219945
Cl -1.27054857 2.42559762 -1.94637133
Cl -2.05648952 1.25639780 -4.46688136
Cl 0.06300180 0.05215940 -2.91890075
C -1.48324320 0.90763487 -2.82971670
