10

Cl -1.01048397 -0.68311835 2.38669726
Cl -1.26840400 1.18650158 0.19693568
Cl -0.65162638 -1.58401332 -0.33612458
Cl 1.32763365 0.12608523 0.88955544
C -0.40084295 -0.23877525 0.78585386
Cl 0.90782271 0.67830921 -2.88848526
Cl 1.32587764 2.70022947 -4.90808371
Cl 1.96475428 -0.06165901 -5.47257538
Cl 3.59316699 1.44942971 -3.62304449
C 1.94827203 1.19182073 -4.22334883
