10

 Cl     -0.90018    -0.50746     1.43599
 Cl     -0.71358     1.48267    -0.64981
 Cl     -0.07410    -1.27569    -1.22378
 Cl      1.68789     0.30045     0.43751
  C     -0.00009     0.00008     0.00027
 Cl     -2.35292    -0.55452    -0.50261
 Cl     -2.16632     1.43562    -2.58841
 Cl     -1.52684    -1.32275    -3.16238
 Cl      0.23514     0.25339    -1.50108
  C     -1.45283    -0.04698    -1.93832
