8

 Cl     -0.90018    -0.50746     1.43599
 Cl     -0.71358     1.48267    -0.64981
 Cl     -0.07410    -1.27569    -1.22378
 Cl      1.68789     0.30045     0.43751
  C     -0.00009     0.00008     0.00027
  O     -0.05422     1.74419     1.79610
  H     -0.51215     0.89882     1.70708
  H      0.19341     1.93859     0.90625
