10

Cl -1.44004760 -1.04583041 2.04199647
Cl -1.25060545 1.19319314 0.22282569
Cl -0.41997731 -1.43715816 -0.63530926
Cl 1.14940750 0.01119434 1.31000823
C -0.49121826 -0.32069188 0.73584753
Cl 1.66613450 1.36859568 -2.18876924
Cl 1.84147965 3.23623841 -4.38530242
Cl 2.39871208 0.43357411 -4.82286220
Cl 4.24429993 2.05289498 -3.29698921
C 2.53798496 1.77279979 -3.67406559
