8

Cl -0.90871945 -0.96525337 1.03481230
Cl -0.80820829 0.89881268 -1.16537708
Cl -0.01561948 -1.85381653 -1.57073760
Cl 1.63952542 -0.07884249 0.00534588
C -0.02285308 -0.50363892 -0.42641892
O -0.05435577 2.63299671 1.93267921
H -0.61208524 1.85801214 2.00312506
H 0.40929590 2.59337979 1.09618116
