8

Cl -0.57083071 -0.66847956 1.44736749
Cl -0.61889392 1.25764091 -0.70456456
Cl 0.63396417 -1.31140453 -1.09277541
Cl 1.87322777 0.65069745 0.63506322
C 0.33301937 -0.01578364 0.07311811
O -3.01229479 -1.56335070 -1.25634875
H -2.47869395 -1.94095467 -0.55685745
H -2.53251795 -0.82671526 -1.63539265
