10

 Cl     -0.90018    -0.50746     1.43599
 Cl     -0.71358     1.48267    -0.64981
 Cl     -0.07410    -1.27569    -1.22378
 Cl      1.68789     0.30045     0.43751
  C     -0.00009     0.00008     0.00027
 Cl     -1.35292    -2.55452     1.49739
 Cl     -1.16632    -0.56438    -0.58841
 Cl     -0.52684    -3.32275    -1.16238
 Cl      1.23514    -1.74661     0.49892
  C     -0.45283    -2.04698     0.06168
