8

Cl -1.44541417 -1.16490112 -0.05189052
Cl -0.64214776 1.55724751 -0.59992659
Cl 0.79278841 -0.64494719 -1.80821930
Cl 1.02401789 -0.14872314 1.03164764
C -0.06705789 -0.09914069 -0.36067585
O -1.75673832 -0.52495961 3.58645870
H -1.54037609 -1.13079498 4.29491261
H -1.23809207 -0.76213079 2.81730332
