10

Cl -0.61621095 -3.09821650 1.39813949
Cl -1.59400803 -0.42548430 0.90011584
Cl 0.16236295 -1.70164160 -1.00901262
Cl 1.19224561 -0.85176489 1.55346819
C -0.21384462 -1.51764825 0.71067049
Cl 0.24774802 2.78975120 1.79104467
Cl 1.32740345 4.67772575 -0.10782082
Cl 0.57367877 2.03123292 -0.98183758
Cl 2.89600256 2.39051567 0.70140536
C 1.26079224 2.97034000 0.35120698
