8

Cl -1.16159317 -1.57561292 0.45963708
Cl -0.93786961 1.24978113 -0.08818188
Cl 0.39282177 -0.66209840 -1.80397538
Cl 1.34641750 -0.21204120 0.89086182
C -0.08858059 -0.30150750 -0.13963575
O -1.05734701 0.59294132 3.55575456
H -1.31225361 -0.18088262 3.05313990
H -0.55461528 1.17107019 2.98200965
