10

Cl -0.41788958 -0.43599010 2.13048246
Cl -1.16150591 1.22649376 -0.11308030
Cl -0.54313358 -1.56664729 -0.52583152
Cl 1.56110699 0.29438038 0.15684369
C -0.13999773 -0.12031649 0.41147767
Cl 0.21910312 0.53243048 -3.52482978
Cl 1.42351308 2.68905215 -5.02180338
Cl 2.07658444 -0.05457173 -5.65710157
Cl 3.03090789 1.12673189 -3.19900710
C 1.68748129 1.07324696 -4.34977018
