8

 Cl     -0.90018    -0.50746     1.43599
 Cl     -0.71358     1.48267    -0.64981
 Cl     -0.07410    -1.27569    -1.22378
 Cl      1.68789     0.30045     0.43751
  C     -0.00009     0.00008     0.00027
  O      0.94578    -2.25581     0.79610
  H      0.48785    -3.10118     0.70708
  H      1.19341    -2.06141    -0.09375
