10

Cl -0.08786697 -0.56863148 3.10311925
Cl -0.36184957 1.36865352 0.97813537
Cl 0.31521887 -1.37773514 0.36060380
Cl 2.24746711 0.33359175 1.65770278
C 0.52774167 -0.06084993 1.52355334
Cl -2.75831127 -0.07407428 -1.48506902
Cl -2.61774280 2.11454977 -3.36554879
Cl -2.31619019 -0.60829481 -4.28849157
Cl -0.23179322 0.62376458 -2.71451284
C -1.98050364 0.51383603 -2.96211233
