8

Cl -0.65461396 -0.45592579 1.43615891
Cl -0.15596638 1.58814937 -0.54212324
Cl 0.39796655 -1.17726701 -1.15051649
Cl 2.06466641 0.24463012 0.73829137
C 0.41695401 0.05093086 0.12246273
O -3.17033902 -0.58700311 -1.34088319
H -2.71549821 -1.17608398 -0.73867011
H -2.55618941 0.09421953 -1.61510998
