8

Cl -0.77557426 -0.48488167 1.29367378
Cl -1.24149292 1.78435858 -0.44079196
Cl -0.26503007 -0.70801195 -1.53641490
Cl 1.46093797 0.91047541 0.11240841
C -0.20763595 0.37930837 -0.14235158
O 1.94467533 -2.86999719 0.33287701
H 0.99053529 -2.85652421 0.41030853
H 2.22056460 -2.07307733 -0.12009928
