10

Cl -1.47453493 -0.11784816 -0.07438036
Cl -1.41248082 1.59373958 -2.40010991
Cl -0.52647429 -1.15114708 -2.60016265
Cl 1.05985844 0.77780597 -1.15019618
C -0.58802319 0.27543925 -1.55484935
Cl 0.95191320 -0.22712453 4.69795120
Cl 0.81281378 1.60519740 2.46986284
Cl 1.41528621 -1.18989914 2.01486337
Cl 3.36271850 0.52107162 3.28794990
C 1.63509309 0.17757510 3.11645114
