10

Cl 0.18140967 -1.08558542 0.79235188
Cl 0.71239402 0.58855216 -1.50947307
Cl 1.20519427 -2.25464655 -1.64207937
Cl 2.90324193 -0.56582866 -0.02351178
C 1.24955651 -0.82863158 -0.59499787
Cl -3.83612046 2.11966159 2.00585322
Cl -3.09098824 3.73703281 -0.27157725
Cl -2.83299935 0.86260154 -0.39290478
Cl -1.05337092 2.41004835 1.28692467
C -2.70214742 2.28160577 0.65679435
