8

Cl -0.59308742 -0.55366904 1.46236895
Cl -0.39967034 1.42190781 -0.63552057
Cl 0.52165768 -1.27211129 -1.09937346
Cl 1.99712993 0.47012192 0.67746577
C 0.38538241 0.01817235 0.10318102
O -3.10927611 -1.08381629 -1.30941549
H -2.60982681 -1.54319310 -0.63438881
H -2.56532934 -0.37576236 -1.65470741
