8

Cl -1.73437247 0.17446598 0.60881401
Cl 0.07072543 1.62207040 -1.12688050
Cl -0.16411016 -1.25357355 -1.35059742
Cl 1.11190978 -0.08578002 0.96357607
C -0.17792509 0.11632549 -0.23062597
O -0.81264201 -1.63010852 3.72060913
H -0.98048702 -2.43870463 3.23697917
H -0.68611846 -0.92304514 3.08773550
