8

Cl -0.54264660 0.53757740 1.58690086
Cl -0.07695341 1.70457956 -1.01769017
Cl -0.78152717 -1.08995798 -0.77788971
Cl 1.82142612 -0.17948577 0.08724886
C 0.10776194 0.24590727 -0.03243529
O -2.65052678 -2.45422144 2.12930718
H -1.87053031 -2.95676032 2.36429831
H -2.38002379 -1.72598871 1.56986997
