10

Cl -2.17954046 0.20591784 1.95814050
Cl -1.73221744 2.15370938 -0.13074311
Cl -1.10329923 -0.62843882 -0.58836537
Cl 0.51447835 0.94614736 1.22368492
C -1.12393868 0.66876564 0.61518551
Cl 2.21804329 -2.23052962 0.34546126
Cl 2.40081354 -0.31938095 -1.82144057
Cl 3.27085815 -3.04567223 -2.21661478
Cl 4.79969549 -1.27011494 -0.52418542
C 3.17127699 -1.71559366 -1.05374294
