8

 Cl     -0.90018    -0.50746     1.43599
 Cl     -0.71358     1.48267    -0.64981
 Cl     -0.07410    -1.27569    -1.22378
 Cl      1.68789     0.30045     0.43751
  C     -0.00009     0.00008     0.00027
  O     -2.55422    -0.25581     0.29610
  H     -3.01215    -1.10118     0.20708
  H     -2.30659    -0.06141    -0.59375
