10

Cl -0.53942910 -0.62200859 2.35772981
Cl -0.28320960 1.39966639 0.31109820
Cl 0.33510027 -1.36370990 -0.29349049
Cl 2.08001077 0.16743552 1.42497575
C 0.39745109 -0.10420479 0.94868016
Cl -2.34137090 0.03076829 -2.51873958
Cl -2.01101883 2.06096475 -4.54599718
Cl -1.36414839 -0.69322810 -5.13884252
Cl 0.31324879 0.83181569 -3.35062051
C -1.35046409 0.55731076 -3.88741365
