10

Cl -2.38961652 0.49449601 2.27295182
Cl -1.88453985 2.34759125 0.11233783
Cl -1.31586261 -0.46418153 -0.23070346
Cl 0.32553684 1.14433752 1.53003610
C -1.31486538 0.87996077 0.92086480
Cl 1.81255251 -2.22419224 1.03414763
Cl 2.25642094 -0.54184453 -1.27977973
Cl 2.87984977 -3.36035484 -1.39681264
Cl 4.50446660 -1.58417888 0.20383380
C 2.86222771 -1.92682353 -0.35949615
