
 OpenBabel06162212333D

 18 17  0  0  0  0  0  0  0  0999 V2000
    0.6043    2.1155    0.7901 C   0  0  0  0  0  0  0  0  0  0  0  0
    0.0376    2.0520    2.0429 O   0  0  0  0  0  0  0  0  0  0  0  0
    0.4139    1.1897   -0.0334 N   0  0  0  0  0  0  0  0  0  0  0  0
   -0.3262   -0.0035    0.0756 C   0  0  1  0  0  0  0  0  0  0  0  0
   -1.4743    0.0104   -0.8425 C   0  0  0  0  0  0  0  0  0  0  0  0
   -2.2841   -0.9539   -0.9209 O   0  0  0  0  0  0  0  0  0  0  0  0
   -1.7027    1.1323   -1.6791 N   0  0  0  0  0  0  0  0  0  0  0  0
    0.4541   -1.2680   -0.1748 C   0  0  0  0  0  0  0  0  0  0  0  0
    1.8385   -1.4381    1.0145 S   0  0  0  0  0  0  0  0  0  0  0  0
    2.6708   -2.9651    0.6174 C   0  0  0  0  0  0  0  0  0  0  0  0
    3.1870   -3.9532    0.3669 N   0  0  0  0  0  0  0  0  0  0  0  0
    1.2036    2.9626    0.5381 H   0  0  0  0  0  0  0  0  0  0  0  0
   -0.8630    1.6224    2.2066 H   0  0  0  0  0  0  0  0  0  0  0  0
   -0.7320   -0.0967    1.1209 H   0  0  0  0  0  0  0  0  0  0  0  0
   -2.6199    1.6191   -1.6758 H   0  0  0  0  0  0  0  0  0  0  0  0
   -0.9658    1.4800   -2.2999 H   0  0  0  0  0  0  0  0  0  0  0  0
   -0.2264   -2.1146    0.0599 H   0  0  0  0  0  0  0  0  0  0  0  0
    0.7847   -1.3907   -1.2065 H   0  0  0  0  0  0  0  0  0  0  0  0
  1  2  1  0  0  0  0
  1  3  2  3  0  0  0
  1 12  1  0  0  0  0
  2 13  1  0  0  0  0
  3  4  1  0  0  0  0
  4  5  1  0  0  0  0
  4  8  1  0  0  0  0
  4 14  1  1  0  0  0
  5  6  2  0  0  0  0
  5  7  1  0  0  0  0
  7 15  1  0  0  0  0
  7 16  1  0  0  0  0
  8  9  1  0  0  0  0
  8 17  1  0  0  0  0
  8 18  1  0  0  0  0
  9 10  1  0  0  0  0
 10 11  3  0  0  0  0
M  END
$$$$
