
     RDKit          3D

 18 17  0  0  0  0  0  0  0  0999 V2000
   -0.6478    2.4234   -0.1048 C   0  0  0  0  0  0  0  0  0  0  0  0
   -0.9996    2.6290   -1.2934 O   0  0  0  0  0  0  0  0  0  0  0  0
   -0.2163    1.1173    0.2736 N   0  0  0  0  0  0  0  0  0  0  0  0
   -0.1536    0.0048   -0.6155 C   0  0  0  0  0  0  0  0  0  0  0  0
   -1.0492   -1.1185   -0.2269 C   0  0  0  0  0  0  0  0  0  0  0  0
   -0.8831   -1.7341    1.0057 O   0  0  0  0  0  0  0  0  0  0  0  0
   -1.9700   -1.5329   -1.0010 N   0  0  0  0  0  0  0  0  0  0  0  0
    1.2152   -0.5622   -0.8277 C   0  0  0  0  0  0  0  0  0  0  0  0
    2.0195   -1.1649    0.6370 S   0  0  0  0  0  0  0  0  0  0  0  0
    2.3731    0.1762    1.7298 C   0  0  0  0  0  0  0  0  0  0  0  0
    2.5958    1.0810    2.4482 N   0  0  0  0  0  0  0  0  0  0  0  0
   -0.6779    3.2362    0.6086 H   0  0  0  0  0  0  0  0  0  0  0  0
    0.0642    0.9895    1.2590 H   0  0  0  0  0  0  0  0  0  0  0  0
   -0.4970    0.3804   -1.6239 H   0  0  0  0  0  0  0  0  0  0  0  0
   -1.5045   -2.4068    1.3929 H   0  0  0  0  0  0  0  0  0  0  0  0
   -2.5859   -2.3086   -0.7288 H   0  0  0  0  0  0  0  0  0  0  0  0
    1.1032   -1.4131   -1.5444 H   0  0  0  0  0  0  0  0  0  0  0  0
    1.8141    0.2031   -1.3884 H   0  0  0  0  0  0  0  0  0  0  0  0
  1  2  2  0
  1  3  1  0
  3  4  1  0
  4  5  1  0
  5  6  1  0
  5  7  2  3
  4  8  1  0
  8  9  1  0
  9 10  1  0
 10 11  3  0
  1 12  1  0
  3 13  1  0
  4 14  1  0
  6 15  1  0
  7 16  1  0
  8 17  1  0
  8 18  1  0
M  END
