
 OpenBabel06152213573D

 18 17  0  0  0  0  0  0  0  0999 V2000
   -1.6921    1.0288   -0.8401 C   0  0  0  0  0  0  0  0  0  0  0  0
   -2.1536    2.1851   -1.4593 O   0  0  0  0  0  0  0  0  0  0  0  0
   -0.5294    1.0779   -0.3083 N   0  0  0  0  0  0  0  0  0  0  0  0
    0.1396    0.0223    0.3740 C   0  0  1  0  0  0  0  0  0  0  0  0
   -0.6673   -1.2480    0.4265 C   0  0  0  0  0  0  0  0  0  0  0  0
   -0.9980   -1.8067   -0.8362 O   0  0  0  0  0  0  0  0  0  0  0  0
   -1.0424   -1.8096    1.4274 N   0  0  0  0  0  0  0  0  0  0  0  0
    1.3968   -0.3224   -0.4224 C   0  0  0  0  0  0  0  0  0  0  0  0
    2.5111    1.0784   -0.5710 S   0  0  0  0  0  0  0  0  0  0  0  0
    3.1366    1.4776    1.0315 C   0  0  0  0  0  0  0  0  0  0  0  0
    3.5362    1.7450    2.1012 N   0  0  0  0  0  0  0  0  0  0  0  0
   -2.3490    0.1728   -0.8533 H   0  0  0  0  0  0  0  0  0  0  0  0
   -1.5148    2.8771   -1.8628 H   0  0  0  0  0  0  0  0  0  0  0  0
    0.4128    0.3326    1.3827 H   0  0  0  0  0  0  0  0  0  0  0  0
   -1.7001   -2.5233   -0.9224 H   0  0  0  0  0  0  0  0  0  0  0  0
   -1.4108   -2.3704    2.1079 H   0  0  0  0  0  0  0  0  0  0  0  0
    1.0638   -0.7306   -1.3873 H   0  0  0  0  0  0  0  0  0  0  0  0
    1.8605   -1.1866    0.1278 H   0  0  0  0  0  0  0  0  0  0  0  0
  1  2  1  0  0  0  0
  1  3  2  3  0  0  0
  1 12  1  0  0  0  0
  2 13  1  0  0  0  0
  3  4  1  0  0  0  0
  4  5  1  0  0  0  0
  4  8  1  0  0  0  0
  4 14  1  1  0  0  0
  5  6  1  0  0  0  0
  5  7  2  0  0  0  0
  6 15  1  0  0  0  0
  7 16  1  0  0  0  0
  8  9  1  0  0  0  0
  8 17  1  0  0  0  0
  8 18  1  0  0  0  0
  9 10  1  0  0  0  0
 10 11  3  0  0  0  0
M  END
$$$$
