
 OpenBabel06162212333D

 18 17  0  0  0  0  0  0  0  0999 V2000
   -1.3253   -2.5160   -0.7297 C   0  0  0  0  0  0  0  0  0  0  0  0
   -0.5970   -3.5409   -0.6023 O   0  0  0  0  0  0  0  0  0  0  0  0
   -1.2049   -1.4794    0.2275 N   0  0  0  0  0  0  0  0  0  0  0  0
   -0.4522   -0.4397    0.0650 C   0  0  0  0  0  0  0  0  0  0  0  0
   -0.4427    0.5455    1.1612 C   0  0  1  0  0  0  0  0  0  0  0  0
    0.8332    0.6151    1.6974 O   0  0  0  0  0  0  0  0  0  0  0  0
   -0.7696    1.8772    0.6682 N   0  0  0  0  0  0  0  0  0  0  0  0
    0.3031   -0.3532   -1.1740 C   0  0  0  0  0  0  0  0  0  0  0  0
    2.0628   -0.2507   -1.0648 S   0  0  0  0  0  0  0  0  0  0  0  0
    2.5998    1.2421   -0.3557 C   0  0  0  0  0  0  0  0  0  0  0  0
    2.9694    2.2599    0.1064 N   0  0  0  0  0  0  0  0  0  0  0  0
   -2.0398   -2.3764   -1.5269 H   0  0  0  0  0  0  0  0  0  0  0  0
   -1.2020    0.3281    1.9339 H   0  0  0  0  0  0  0  0  0  0  0  0
    0.7853    0.3107    2.6420 H   0  0  0  0  0  0  0  0  0  0  0  0
    0.0286    2.5017    0.5624 H   0  0  0  0  0  0  0  0  0  0  0  0
   -1.4798    1.8655   -0.0648 H   0  0  0  0  0  0  0  0  0  0  0  0
   -0.0150   -1.1852   -1.8549 H   0  0  0  0  0  0  0  0  0  0  0  0
   -0.0538    0.5959   -1.6907 H   0  0  0  0  0  0  0  0  0  0  0  0
  1  2  2  0  0  0  0
  1  3  1  0  0  0  0
  1 12  1  0  0  0  0
  3  4  2  3  0  0  0
  4  5  1  0  0  0  0
  4  8  1  0  0  0  0
  5  6  1  0  0  0  0
  5  7  1  0  0  0  0
  5 13  1  1  0  0  0
  6 14  1  0  0  0  0
  7 15  1  0  0  0  0
  7 16  1  0  0  0  0
  8  9  1  0  0  0  0
  8 17  1  0  0  0  0
  8 18  1  0  0  0  0
  9 10  1  0  0  0  0
 10 11  3  0  0  0  0
M  END
$$$$
