
 OpenBabel06082210043D

 22 22  0  0  0  0  0  0  0  0999 V2000
    4.2736   -0.7238   -0.7723 C   0  0  0  0  0  0  0  0  0  0  0  0
    3.1436   -0.0797   -1.3184 N   0  0  0  0  0  0  0  0  0  0  0  0
    1.8308   -0.2203   -0.7287 C   0  0  0  0  0  0  0  0  0  0  0  0
    1.4615   -1.3392    0.0212 C   0  0  0  0  0  0  0  0  0  0  0  0
    3.2561    0.8416   -2.4531 C   0  0  0  0  0  0  0  0  0  0  0  0
    0.8506    0.7673   -0.9061 C   0  0  0  0  0  0  0  0  0  0  0  0
    0.1759   -1.4556    0.5739 C   0  0  0  0  0  0  0  0  0  0  0  0
   -0.7987   -0.4617    0.4086 C   0  0  0  0  0  0  0  0  0  0  0  0
   -0.4352    0.6459   -0.3492 C   0  0  0  0  0  0  0  0  0  0  0  0
    2.1347   -2.1774    0.1712 H   0  0  0  0  0  0  0  0  0  0  0  0
    1.0538    1.6827   -1.4539 H   0  0  0  0  0  0  0  0  0  0  0  0
    5.6327   -0.4154   -1.4574 C   0  0  0  0  0  0  0  0  0  0  0  0
    4.2484   -1.4671    0.2131 O   0  0  0  0  0  0  0  0  0  0  0  0
    2.3620    0.7934   -3.0831 H   0  0  0  0  0  0  0  0  0  0  0  0
    3.4063    1.8562   -2.0716 H   0  0  0  0  0  0  0  0  0  0  0  0
    4.0956    0.5836   -3.1014 H   0  0  0  0  0  0  0  0  0  0  0  0
   -0.0613   -2.3590    1.1338 H   0  0  0  0  0  0  0  0  0  0  0  0
   -1.1207    1.4684   -0.5088 H   0  0  0  0  0  0  0  0  0  0  0  0
    5.5936   -0.8941   -2.4430 H   0  0  0  0  0  0  0  0  0  0  0  0
    5.7613    0.6657   -1.5772 H   0  0  0  0  0  0  0  0  0  0  0  0
   -1.7378   -0.5477    0.8278 H   0  0  0  0  0  0  0  0  0  0  0  0
    6.4515   -0.7785   -0.8721 H   0  0  0  0  0  0  0  0  0  0  0  0
  1 12  1  0  0  0  0
  1 13  2  0  0  0  0
  2  3  1  0  0  0  0
  2  1  1  0  0  0  0
  2  5  1  0  0  0  0
  4  3  2  0  0  0  0
  4 10  1  0  0  0  0
  5 14  1  0  0  0  0
  5 15  1  0  0  0  0
  5 16  1  0  0  0  0
  6  3  1  0  0  0  0
  6 11  1  0  0  0  0
  7  4  1  0  0  0  0
  7 17  1  0  0  0  0
  8  7  2  0  0  0  0
  8  9  1  0  0  0  0
  8 21  1  0  0  0  0
  9  6  2  0  0  0  0
  9 18  1  0  0  0  0
 12 19  1  0  0  0  0
 12 20  1  0  0  0  0
 12 22  1  0  0  0  0
M  END
$$$$
