
 OpenBabel06082210043D

 22 22  0  0  0  0  0  0  0  0999 V2000
    3.3371   -0.0380   -0.3584 C   0  0  0  0  0  0  0  0  0  0  0  0
    2.7586   -0.2600    0.8736 C   0  0  0  0  0  0  0  0  0  0  0  0
    1.3713   -0.2143    1.0564 C   0  0  0  0  0  0  0  0  0  0  0  0
    0.5395    0.0579   -0.0067 C   0  0  0  0  0  0  0  0  0  0  0  0
   -0.8907    0.1129    0.1470 N   0  0  0  0  0  0  0  0  0  0  0  0
   -1.7318   -0.9066   -0.3334 C   0  0  0  0  0  0  0  0  0  0  0  0
   -1.2122   -1.8908   -0.9101 O   0  0  0  0  0  0  0  0  0  0  0  0
   -3.1902   -0.8261   -0.1663 C   0  0  0  0  0  0  0  0  0  0  0  0
   -1.4180    1.2813    0.8268 C   0  0  0  0  0  0  0  0  0  0  0  0
    1.1250    0.2786   -1.2345 C   0  0  0  0  0  0  0  0  0  0  0  0
    2.4937    0.2339   -1.4168 C   0  0  0  0  0  0  0  0  0  0  0  0
    4.4106   -0.0778   -0.4783 H   0  0  0  0  0  0  0  0  0  0  0  0
    3.4007   -0.4741    1.7148 H   0  0  0  0  0  0  0  0  0  0  0  0
    0.9306   -0.3911    2.0287 H   0  0  0  0  0  0  0  0  0  0  0  0
   -3.7340   -1.5366   -0.8450 H   0  0  0  0  0  0  0  0  0  0  0  0
   -3.5032   -1.1467    0.8669 H   0  0  0  0  0  0  0  0  0  0  0  0
   -3.5951    0.1715   -0.4005 H   0  0  0  0  0  0  0  0  0  0  0  0
   -2.5014    1.3176    0.8819 H   0  0  0  0  0  0  0  0  0  0  0  0
   -1.0078    1.2413    1.8786 H   0  0  0  0  0  0  0  0  0  0  0  0
   -0.9462    2.1641    0.3216 H   0  0  0  0  0  0  0  0  0  0  0  0
    0.4371    0.4913   -2.0538 H   0  0  0  0  0  0  0  0  0  0  0  0
    2.9265    0.4114   -2.3925 H   0  0  0  0  0  0  0  0  0  0  0  0
  1  2  2  0  0  0  0
  1 12  1  0  0  0  0
  2  3  1  0  0  0  0
  2 13  1  0  0  0  0
  3  4  2  0  0  0  0
  3 14  1  0  0  0  0
  4  5  1  0  0  0  0
  4 10  1  0  0  0  0
  5  6  1  0  0  0  0
  5  9  1  0  0  0  0
  6  7  2  0  0  0  0
  6  8  1  0  0  0  0
  8 15  1  0  0  0  0
  8 16  1  0  0  0  0
  8 17  1  0  0  0  0
  9 18  1  0  0  0  0
  9 19  1  0  0  0  0
  9 20  1  0  0  0  0
 10 11  2  0  0  0  0
 10 21  1  0  0  0  0
 11  1  1  0  0  0  0
 11 22  1  0  0  0  0
M  END
$$$$
