
 OpenBabel11092109433D

 29 30  0  0  0  0  0  0  0  0999 V2000
    0.7684   -0.3901    0.0751 C   0  0  0  0  0  0  0  0  0  0  0  0
    0.8187    0.7967    0.7396 C   0  0  0  0  0  0  0  0  0  0  0  0
    2.0150    1.4857    1.0262 N   0  0  0  0  0  0  0  0  0  0  0  0
    2.0467    2.3590    1.5950 H   0  0  0  0  0  0  0  0  0  0  0  0
    3.3276    1.0451    0.5570 C   0  0  0  0  0  0  0  0  0  0  0  0
   -0.3808    1.3773    1.1515 C   0  0  0  0  0  0  0  0  0  0  0  0
   -0.4525   -0.9913   -0.1781 C   0  0  0  0  0  0  0  0  0  0  0  0
   -1.5812    0.7589    0.8881 C   0  0  0  0  0  0  0  0  0  0  0  0
   -1.6729   -0.4423    0.2171 C   0  0  0  0  0  0  0  0  0  0  0  0
    1.6947   -0.8811   -0.2560 H   0  0  0  0  0  0  0  0  0  0  0  0
   -0.3362    2.3125    1.6730 H   0  0  0  0  0  0  0  0  0  0  0  0
   -0.4960   -1.9392   -0.7089 H   0  0  0  0  0  0  0  0  0  0  0  0
   -2.4841    1.2641    1.2460 H   0  0  0  0  0  0  0  0  0  0  0  0
   -2.8888   -1.1054   -0.0710 N   0  0  0  0  0  0  0  0  0  0  0  0
    3.5334    1.1624   -0.8633 C   0  0  0  0  0  0  0  0  0  0  0  0
    3.8728    0.1587   -1.7382 C   0  0  0  0  0  0  0  0  0  0  0  0
    3.3553    2.4401   -1.3944 C   0  0  0  0  0  0  0  0  0  0  0  0
    4.0372    0.3727   -3.0889 C   0  0  0  0  0  0  0  0  0  0  0  0
    3.5217    2.6313   -2.7274 C   0  0  0  0  0  0  0  0  0  0  0  0
    3.8590    1.6349   -3.6015 C   0  0  0  0  0  0  0  0  0  0  0  0
    4.0156   -0.8353   -1.3516 H   0  0  0  0  0  0  0  0  0  0  0  0
    3.0898    3.2771   -0.7629 H   0  0  0  0  0  0  0  0  0  0  0  0
    4.3051   -0.4395   -3.7540 H   0  0  0  0  0  0  0  0  0  0  0  0
    3.3817    3.6237   -3.1393 H   0  0  0  0  0  0  0  0  0  0  0  0
    3.9846    1.8164   -4.6657 H   0  0  0  0  0  0  0  0  0  0  0  0
    3.4493    0.0169    0.8269 H   0  0  0  0  0  0  0  0  0  0  0  0
    4.0444    1.6914    1.0189 H   0  0  0  0  0  0  0  0  0  0  0  0
   -2.8793   -1.9626   -0.5551 H   0  0  0  0  0  0  0  0  0  0  0  0
   -3.7445   -0.7097    0.2126 H   0  0  0  0  0  0  0  0  0  0  0  0
  1  7  2  0  0  0  0
  1 10  1  0  0  0  0
  2  1  1  0  0  0  0
  2  6  2  0  0  0  0
  3  5  1  0  0  0  0
  3  2  1  0  0  0  0
  3  4  1  0  0  0  0
  5 15  1  0  0  0  0
  5 26  1  0  0  0  0
  5 27  1  0  0  0  0
  6  8  1  0  0  0  0
  6 11  1  0  0  0  0
  7  9  1  0  0  0  0
  7 12  1  0  0  0  0
  8  9  2  0  0  0  0
  8 13  1  0  0  0  0
 14  9  1  0  0  0  0
 14 28  1  0  0  0  0
 14 29  1  0  0  0  0
 15 16  2  0  0  0  0
 15 17  1  0  0  0  0
 16 18  1  0  0  0  0
 16 21  1  0  0  0  0
 17 19  2  0  0  0  0
 17 22  1  0  0  0  0
 18 20  2  0  0  0  0
 18 23  1  0  0  0  0
 19 20  1  0  0  0  0
 19 24  1  0  0  0  0
 20 25  1  0  0  0  0
M  END
$$$$
