36

C 1.74731320 -0.22364551 0.09915956
N 0.64208155 -0.22144034 1.00080731
C -0.64144751 0.25983380 0.91705658
C -1.63810486 -0.60586938 1.38248248
H 0.70293653 -0.92432363 1.76192459
C -1.06687361 1.24095790 -0.13278619
C -2.90087150 -0.99449334 0.80162659
N -2.69651414 -1.98723828 2.81509686
C -1.52708538 -1.27637665 2.68158655
C -3.51277965 -1.82178000 1.69165398
C -1.77564856 2.40271322 0.26209042
C -0.95729615 0.94990071 -1.52032790
C -2.27744152 3.29231154 -0.69676609
C -1.45676313 1.84454216 -2.47545332
C -2.11155995 3.02519346 -2.07088300
C 2.66009929 -1.30767022 0.17143710
C 1.97353732 0.79207117 -0.86407417
C 3.73993348 -1.38909970 -0.71957232
C 3.05074660 0.69469045 -1.75748492
C 3.95816555 -0.39308007 -1.70498411
H -2.88993643 -2.54669720 3.63308291
O -0.57240074 -1.26108316 3.48943637
H -1.92235871 2.60287520 1.32550601
H -0.48788957 0.01782670 -1.84083866
H -2.79874099 4.19612410 -0.37645193
H -1.33905586 1.62157576 -3.53719575
H -2.49572635 3.72361852 -2.81659990
H 2.49908930 -2.08392103 0.92388597
H 1.33060042 1.66888045 -0.88915359
H 4.41379226 -2.24564196 -0.64417814
H 3.18380463 1.48640747 -2.49846818
N 5.04697066 -0.48255946 -2.61487111
H -3.30145228 -0.68118927 -0.15191211
H -4.47094263 -2.31884380 1.63443755
H 5.81947961 -0.97909598 -2.16361702
H 5.43672615 0.45302737 -2.75677946
