36

C 0.965666330971 -1.211250729911 -0.368472318324
N -0.454410099160 -1.146672613098 -0.624313805905
C -1.162111661888 -0.008972902233 -0.225456221609
C -1.984956774896 -0.032708991797 0.862669612859
H -0.903894355512 -1.994455411747 -0.283699677024
C -0.806403688560 1.235028243432 -0.949395032199
C -2.860283963084 1.003912001954 1.407512896876
N -3.086327687578 -0.846832738054 2.675814334690
C -2.204699146052 -1.239936698757 1.687760103596
C -3.483956261611 0.489171589357 2.487187986602
C -0.526535907024 2.427691603272 -0.271177173898
C -0.680508760342 1.198914144939 -2.343560658181
C -0.159378289481 3.569666725489 -0.976952448137
C -0.320181516446 2.342952559711 -3.047858874233
C -0.062291008836 3.531880762832 -2.366715035658
C 1.780321004208 -1.932231177738 -1.240507953930
C 1.545164875800 -0.557863154254 0.716020739673
C 3.147966606765 -2.019935223097 -1.023084899810
C 2.913730639300 -0.645344858053 0.942644965050
C 3.737188598521 -1.383524805168 0.081258240076
H -3.424414985974 -1.472864979549 3.380633759739
O -1.736018278294 -2.394654764380 1.555029679453
H -0.575723567433 2.450152941217 0.808955246894
H -0.863333167876 0.266262478743 -2.858242536946
H 0.065517935016 4.482951823927 -0.442676873514
H -0.233892717063 2.306559736437 -4.125280304287
H 0.225489260882 4.419356991372 -2.913900280064
H 1.333167794057 -2.400415760705 -2.106703611248
H 0.922760345733 0.005379113015 1.398564096540
H 3.773105071775 -2.561371967523 -1.721805428101
H 3.348164577185 -0.140809152932 1.796765395518
N 5.113713700225 -1.438254535112 0.274825792691
H -2.990686677183 1.994802092222 1.011242074610
H -4.194707615307 0.945599105479 3.152710643080
H 5.623690163115 -2.237391928401 -0.050811968658
H 5.511350940297 -0.955629258107 1.058311502276
