36

C 1.59140164 -0.74193292 -0.20611968
N 0.43376908 -0.81556894 0.62417603
C -0.69469691 -0.04306007 0.76549773
C -1.91391674 -0.72481403 0.85572337
H 0.24499250 -1.76755384 0.99219932
C -0.73832302 1.43053705 0.49291921
C -3.19670214 -0.43415646 0.26267752
N -3.39727788 -2.27260865 1.55238004
C -2.07077204 -1.93182198 1.67340750
C -4.06603318 -1.38257804 0.70557146
C -1.29157061 2.29349488 1.47376037
C -0.50910836 1.95617599 -0.80814656
C -1.47888614 3.65606254 1.20705676
C -0.69380643 3.31982520 -1.07141418
C -1.16701778 4.18167608 -0.06251855
C 2.20944603 -1.96197035 -0.58877693
C 2.16053377 0.47428459 -0.65729130
C 3.32352781 -1.96059004 -1.44053437
C 3.26762926 0.46434843 -1.51874234
C 3.87396479 -0.74912054 -1.92912652
H -3.78722632 -3.07487918 2.02568088
O -1.19928688 -2.55769546 2.31716816
H -1.56016698 1.88670898 2.45100382
H -0.20090345 1.28731685 -1.61378774
H -1.86815861 4.31211879 1.98751842
H -0.47495168 3.71230539 -2.06596102
H -1.30374255 5.24531774 -0.26638317
H 1.79277362 -2.90294888 -0.22052041
H 1.76785596 1.42163976 -0.29961847
H 3.76069508 -2.91952080 -1.72828257
H 3.66761810 1.42108941 -1.86226991
N 4.99622359 -0.74764751 -2.80188906
H -3.43523782 0.38767286 -0.39767583
H -5.11894739 -1.51322987 0.49865557
H 5.57732909 -1.56551731 -2.60110151
H 5.61099158 0.02943731 -2.54559802
