36

C 1.67985686 -0.42882026 -0.13499009
N 0.37707047 -0.74142300 -0.61574665
C -0.74844071 -0.06087936 -0.31163364
C -1.31877372 -0.28791353 0.93310492
H 0.32428852 -1.11688824 -1.57369708
C -1.58510275 0.51026560 -1.41237331
C -1.54342657 0.58345443 2.05803293
N -2.37006627 -1.46337660 2.52624854
C -1.88615293 -1.60130290 1.24404640
C -2.16770661 -0.16447879 3.00732655
C -2.00512895 1.86135466 -1.34224890
C -2.00377687 -0.28412055 -2.51087354
C -2.80156720 2.41021392 -2.35622806
C -2.80059776 0.26977258 -3.52197308
C -3.20185116 1.61965460 -3.45315107
C 2.79758915 -0.73232035 -0.95341097
C 1.88597605 0.30321099 1.06214487
C 4.08990909 -0.36481060 -0.55100375
C 3.18314457 0.66593713 1.45336135
C 4.31312160 0.32916628 0.66587262
H -2.81395693 -2.23098528 3.00924200
O -1.94198321 -2.63768077 0.54678563
H -1.70034654 2.47635389 -0.49366400
H -1.71170334 -1.33526227 -2.56077296
H -3.11112751 3.45511348 -2.29576810
H -3.11108586 -0.35048100 -4.36464810
H -3.82075238 2.04923704 -4.24295454
H 2.63376500 -1.25553223 -1.89883869
H 1.03432332 0.57765312 1.68038331
H 4.93069564 -0.62087272 -1.19975664
H 3.30894376 1.22149047 2.38551278
N 5.62435773 0.69344998 1.07635344
H -1.27027561 1.62552636 2.14293213
H -2.49958076 0.10695112 3.99987704
H 6.29139020 0.00892924 0.71105907
H 5.70064166 0.55890754 2.08820557
