36

C 1.67889254 0.14448546 -0.33848059
N 0.56204768 0.63362071 0.39231809
C -0.68776251 0.14077452 0.26145850
C -1.15863841 -0.68166468 1.28562181
H 0.73370575 1.00544312 1.34930341
C -1.67239100 0.95068746 -0.54517618
C -1.95534338 -1.88067867 1.23755179
N -1.54644637 -1.35810963 3.39512958
C -0.90053084 -0.36838363 2.69222700
C -2.17000864 -2.26172396 2.52613789
C -2.97379219 1.22680322 -0.03657432
C -1.30332688 1.54057956 -1.78685878
C -3.87691763 2.01517660 -0.76168819
C -2.21303787 2.32705770 -2.50693209
C -3.50582750 2.56561190 -2.00297097
C 2.96450935 0.21310691 0.25356581
C 1.51574096 -0.58362959 -1.54541104
C 4.07307100 -0.34709400 -0.39767595
C 2.63309754 -1.13386454 -2.19087321
C 3.93575339 -1.01486568 -1.64219759
H -1.53845881 -1.38843504 4.40446424
O -0.23041417 0.57541861 3.17101027
H -3.28203970 0.82306719 0.92912723
H -0.30266692 1.38717009 -2.19078931
H -4.87363770 2.20392907 -0.35914698
H -1.91516156 2.75841219 -3.46427268
H -4.21321245 3.17654920 -2.56670999
H 3.07253792 0.70776177 1.22192108
H 0.51616763 -0.71856608 -1.96139455
H 5.05307884 -0.26527764 0.07792409
H 2.48110862 -1.67143418 -3.12963586
N 5.06136990 -1.57455982 -2.30573793
H -2.32818165 -2.37833896 0.35408942
H -2.72290562 -3.10273661 2.92034228
H 5.89376780 -1.02774865 -2.07110602
H 4.96568689 -1.41185491 -3.31165724
