36

C 1.75359120 -0.28068937 -0.47333348
N 0.41457765 -0.28250775 -0.96592129
C -0.70385459 0.28906495 -0.45280674
C -0.99742548 0.15570700 0.89614296
H 0.30564697 -0.39715418 -1.98366887
C -1.82570767 0.61744962 -1.38864032
C -1.03070535 1.11876221 1.96695162
N -1.63516383 -0.90295740 2.76556967
C -1.41161260 -1.14361856 1.42753792
C -1.41190627 0.44182648 3.08363587
C -2.41879426 1.90364266 -1.35547843
C -2.33277275 -0.35105433 -2.29320903
C -3.46916075 2.22231768 -2.22710551
C -3.38085805 -0.02579030 -3.16466653
C -3.95299638 1.26264471 -3.14014639
C 2.80329844 -0.35072103 -1.42734496
C 2.09241029 -0.05880203 0.88753261
C 4.14325141 -0.26712509 -1.02324879
C 3.43733635 0.02311496 1.27966942
C 4.49106503 -0.09287315 0.33940837
H -1.92724683 -1.63887255 3.39239981
O -1.54073062 -2.24274506 0.84808178
H -2.04881053 2.64945276 -0.64970811
H -1.90593708 -1.35631059 -2.30216804
H -3.91082847 3.22000263 -2.19998264
H -3.75199139 -0.77619893 -3.86478559
H -4.76707170 1.51477585 -3.82220340
H 2.54864887 -0.46984736 -2.48389166
H 1.31525693 0.04275458 1.63779607
H 4.92276728 -0.33419032 -1.78572815
H 3.66027530 0.18395086 2.33693930
N 5.85002844 -0.01634011 0.74991728
H -0.78524087 2.16930509 1.90869308
H -1.54359813 0.79239629 4.09792111
H 6.42496913 -0.57031136 0.11009240
H 5.95367632 -0.52055287 1.63462463
