36

C 1.71019532 0.08196146 0.03834303
N 0.69645331 0.70904086 0.81530404
C -0.62146500 0.62490174 0.56585389
C -1.23577631 -0.58160208 0.86906381
H 0.85809199 0.80445324 1.83647364
C -1.32103843 1.73561728 -0.15777722
C -2.01855002 -1.49772707 0.08207585
N -1.84970594 -2.28103980 2.19520576
C -1.13427304 -1.10632615 2.22832169
C -2.37178622 -2.51442955 0.91511158
C -2.53125687 2.23968297 0.38419732
C -0.78349672 2.36180600 -1.31420319
C -3.20582962 3.29986013 -0.23519213
C -1.46294396 3.42203092 -1.93016837
C -2.67904396 3.89517426 -1.39848898
C 2.91149286 -0.31274709 0.67886147
C 1.47488132 -0.34128224 -1.29549514
C 3.89648168 -1.01216508 -0.03345891
C 2.47032917 -1.03388518 -2.00034856
C 3.70747914 -1.36903569 -1.39338358
H -1.95324335 -2.86622947 3.01139432
O -0.52519139 -0.62224055 3.20985767
H -2.94062736 1.79106186 1.29186262
H 0.16608578 2.02692663 -1.72937104
H -4.14332192 3.66556088 0.18727049
H -1.04436051 3.88432316 -2.82603691
H -3.20651880 4.72023894 -1.88086217
H 3.05464491 -0.06183242 1.73273504
H 0.51164193 -0.13758307 -1.76376439
H 4.81898279 -1.28509754 0.48401576
H 2.27048483 -1.32553619 -3.03387417
N 4.71083136 -2.06817758 -2.11806137
H -2.28396732 -1.40212780 -0.96041067
H -2.95969249 -3.40079764 0.72131433
H 5.63035820 -1.81694017 -1.74627261
H 4.74803964 -1.69733697 -3.07122087
