36

C 1.64849497 -0.47197059 -0.03367150
N 0.53036436 -0.64771951 0.83115756
C -0.62064791 0.09017385 0.93472470
C -1.69148866 -0.47143860 1.65343670
H 0.49341076 -1.52401936 1.38635370
C -1.00660137 0.96270180 -0.22304755
C -3.10076677 -0.15116265 1.61838560
N -2.78027526 -1.75029140 3.16981357
C -1.52050079 -1.52251766 2.66858305
C -3.72274044 -0.93646286 2.53821400
C -1.36474601 2.31350989 0.01211297
C -1.04725870 0.46079717 -1.55091441
C -1.74120633 3.14216033 -1.05269233
C -1.42280755 1.29516058 -2.61142220
C -1.77138244 2.63988570 -2.36980537
C 2.37265996 -1.62293674 -0.43063438
C 1.98700837 0.78336317 -0.60228085
C 3.42761689 -1.51435518 -1.34751920
C 3.04188983 0.87803621 -1.52207518
C 3.79126265 -0.26277473 -1.90695240
H -2.95157924 -2.43208905 3.89459287
O -0.47551021 -2.12250003 3.01287068
H -1.34353300 2.70276142 1.03199293
H -0.78574288 -0.58148686 -1.74239880
H -2.01151347 4.18165610 -0.85891844
H -1.44583654 0.90074049 -3.62876306
H -2.06464552 3.28776731 -3.19785095
H 2.08892295 -2.59239274 -0.01379410
H 1.43300521 1.67515224 -0.31125923
H 3.96682916 -2.42113348 -1.63029912
H 3.27815392 1.85784887 -1.94302974
N 4.86109469 -0.15510207 -2.83715403
H -3.58445066 0.58122702 0.98723612
H -4.76687662 -0.99436543 2.81180839
H 5.55184877 -0.88315683 -2.63759120
H 5.38147189 0.70384563 -2.63980178
