36

C -0.71260218 1.60097792 0.12138503
C -0.79714226 0.23558360 0.34418523
N 0.18195515 -0.38934103 1.16327649
C 1.56223384 -0.65597944 0.85444749
H -0.24108997 -1.14666656 1.70098801
C 0.21182343 2.53840135 0.74263824
N -1.08157621 3.71423692 -0.68040233
C -1.56206446 2.42050851 -0.81880358
C -0.04350271 3.77311520 0.23564141
C -1.89521185 -0.65357522 -0.12430710
C -3.25297346 -0.33589374 0.13081489
C -1.59117985 -1.88400941 -0.76047303
C -4.27415140 -1.21124156 -0.26012990
C -2.61454420 -2.75721233 -1.14937063
C -3.96246869 -2.42569346 -0.90437216
C 2.36650171 -1.33290521 1.80498790
C 2.15865576 -0.28603597 -0.37803241
C 3.71088111 -1.62245799 1.53499802
C 3.50438188 -0.57689781 -0.64068700
C 4.31386548 -1.24271958 0.31149695
H -1.47354890 4.48361064 -1.20407356
O -2.49414442 2.13154509 -1.56973552
H -3.50739642 0.59760275 0.63428047
H -0.54902067 -2.15068186 -0.94368463
H -5.31330511 -0.94722529 -0.05846974
H -2.36072278 -3.69875912 -1.63876316
H -4.75999440 -3.10539413 -1.20950952
H 1.94505033 -1.63853340 2.76564361
H 1.57960625 0.22842895 -1.14681745
H 4.29211294 -2.15326998 2.29228677
H 3.92397652 -0.28091137 -1.60465652
N 5.68194103 -1.54021433 0.03837933
H 0.96960754 2.28960682 1.47192652
H 0.43160195 4.72107804 0.44703575
H 6.26368993 -1.59444075 0.87498836
H 6.11451908 -0.89598824 -0.62447823
