36

C -0.71769722 1.50991883 0.60163048
C -0.78360718 0.13815143 0.48157113
N 0.18542144 -0.66228684 1.13496596
C 1.56911942 -0.84062246 0.80069141
H -0.21677526 -1.39439086 1.72014179
C -0.70088252 2.28149663 1.83192631
N -0.60263530 3.73141976 0.10344779
C -0.65181569 2.49823110 -0.53208972
C -0.63188684 3.59421208 1.48416013
C -1.86594932 -0.60638631 -0.20881920
C -3.22809065 -0.36094821 0.09361732
C -1.54259642 -1.61323824 -1.15191251
C -4.23785759 -1.09901556 -0.53704036
C -2.55458443 -2.34900404 -1.78018002
C -3.90826993 -2.09730083 -1.47666675
C 2.48423805 0.23874766 0.81947224
C 2.04340498 -2.11837644 0.41958927
C 3.82637300 0.04426626 0.46572078
C 3.38686442 -2.30734264 0.06940164
C 4.30632415 -1.22986125 0.07301311
H -0.55142961 4.59318145 -0.42075678
O -0.64159116 2.36342640 -1.75536933
H -3.49109236 0.40483294 0.82496147
H -0.49590085 -1.81106832 -1.38788824
H -5.28209851 -0.89800982 -0.29322964
H -2.28880045 -3.11954879 -2.50524871
H -4.69630823 -2.67236358 -1.96583540
H 2.15614286 1.23696478 1.11421538
H 1.36363614 -2.97325294 0.39210270
H 4.50471901 0.89964703 0.49864861
H 3.71655294 -3.31030655 -0.21059284
N 5.67292362 -1.42532624 -0.28713825
H -0.73071455 1.88049193 2.83469812
H -0.59726791 4.47572014 2.10983937
H 6.11134443 -0.58988528 -0.67663890
H 5.81655151 -2.20352222 -0.93177135
