36

C -0.71328266 1.60428485 0.12429136
C -0.79678683 0.23871973 0.34625113
N 0.18173981 -0.38398784 1.16760422
C 1.56067949 -0.65476210 0.85602257
H -0.24179761 -1.14031794 1.70624281
C 0.21273350 2.54104200 0.74389169
N -1.08506087 3.71778325 -0.67400344
C -1.56555937 2.42427164 -0.81273723
C -0.04497590 3.77630727 0.23962220
C -1.89230177 -0.65206645 -0.12497525
C -3.25102510 -0.33632091 0.12723385
C -1.58522816 -1.88196195 -0.76058074
C -4.27016602 -1.21299456 -0.26595423
C -2.60660913 -2.75641277 -1.15181584
C -3.95552348 -2.42700881 -0.90950206
C 2.36709956 -1.32513352 1.80931630
C 2.15368661 -0.29536179 -0.38129892
C 3.71068482 -1.61714457 1.53828246
C 3.49849619 -0.58944577 -0.64555445
C 4.31029362 -1.24816691 0.30978808
H -1.47922453 4.48757482 -1.19527533
O -2.49961934 2.13612797 -1.56148019
H -3.50794864 0.59683982 0.63005058
H -0.54228289 -2.14701898 -0.94159724
H -5.30998645 -0.95044750 -0.06616168
H -2.35022193 -3.69706789 -1.64138507
H -4.75136906 -3.10798059 -1.21613346
H 1.94831529 -1.62305808 2.77354300
H 1.57264573 0.21336144 -1.15244770
H 4.29405272 -2.14113294 2.29872891
H 3.91535438 -0.30139951 -1.61317448
N 5.67755396 -1.54863713 0.03563723
H 0.97235071 2.29169592 1.47105912
H 0.42961221 4.72425689 0.45152181
H 6.26100217 -1.59558280 0.87159188
H 6.10843297 -0.91020632 -0.63396790
