36

C -1.01000397 2.09079159 0.17606511
C -0.60048313 0.77751792 0.00415509
N 0.67345844 0.45491539 0.56442598
C 1.77416166 -0.47669737 0.58506927
H 0.55248966 0.68939324 1.55391895
C -0.37243057 3.26620667 -0.39229118
N -2.12767988 3.96772385 0.84207232
C -2.17695481 2.58942512 0.98730136
C -1.07064534 4.35389341 0.02955127
C -1.45742744 -0.27996005 -0.60312019
C -2.77588420 -0.47959105 -0.11588983
C -0.98906652 -1.13014203 -1.63184625
C -3.58521444 -1.49916116 -0.63115995
C -1.79407052 -2.15683742 -2.14028695
C -3.09791614 -2.34934020 -1.64304388
C 2.82253549 -0.21099469 1.51250604
C 1.88205729 -1.66562358 -0.17724473
C 3.92914983 -1.06148849 1.63134105
C 2.99895672 -2.50729794 -0.06546528
C 4.05301226 -2.22017599 0.83219783
H -2.80040264 4.57337476 1.29009321
O -3.03497553 2.00453293 1.65844747
H -3.16320512 0.15660968 0.68248467
H 0.00114939 -0.95760186 -2.05578391
H -4.59391897 -1.63217985 -0.23798550
H -1.40662342 -2.80138697 -2.93078980
H -3.72624052 -3.14815123 -2.04050153
H 2.78383119 0.67765324 2.14835962
H 1.09687424 -1.97718727 -0.85541820
H 4.70420430 -0.81091869 2.35892011
H 3.03882279 -3.40752740 -0.68324310
N 5.18379997 -3.08179937 0.94828250
H 0.50424147 3.26817995 -1.02389173
H -0.90760524 5.40334593 -0.17323212
H 6.03253467 -2.60290121 1.25121241
H 5.38522803 -3.60794985 0.09742386
