36

C -0.72205706 1.58724208 0.00353036
C -0.76047832 0.26664540 0.39908707
N 0.26591113 -0.26167723 1.22280456
C 1.60954888 -0.56118065 0.81832838
H 0.20798428 0.07362580 2.18436325
C -0.93477700 2.75633549 0.83789376
N -0.54648348 3.46693990 -1.27130407
C -0.46838636 2.08657369 -1.39364563
C -0.81945628 3.84783424 0.03506605
C -1.87267173 -0.66969830 0.10612835
C -3.21408199 -0.31944585 0.40105480
C -1.60031397 -1.95799265 -0.41736068
C -4.25393644 -1.22576835 0.15762213
C -2.64217949 -2.86227429 -0.65702690
C -3.97547343 -2.50172619 -0.37352574
C 2.06792806 -1.89669900 0.89195365
C 2.50691696 0.43521798 0.36653167
C 3.37567051 -2.22682899 0.51138670
C 3.81309197 0.09975323 -0.01528548
C 4.27943907 -1.23649805 0.05281975
H -0.41578327 4.07459049 -2.06738627
O -0.24374161 1.51124064 -2.45753199
H -3.43685037 0.66198274 0.82263800
H -0.57007601 -2.24203490 -0.63725577
H -5.28151630 -0.93790888 0.38484067
H -2.41547402 -3.84823858 -1.06506628
H -4.78681331 -3.20676997 -0.56273290
H 1.39915139 -2.68419759 1.24615581
H 2.19288454 1.47846218 0.30763148
H 3.69024859 -3.27093313 0.57449723
H 4.47346342 0.89433116 -0.36950997
N 5.60723352 -1.57583699 -0.34232788
H -1.14470949 2.75599532 1.89793296
H -0.90968690 4.89807666 0.27717508
H 5.98060743 -2.39489189 0.13807202
H 6.27063105 -0.80560451 -0.25491617
