36

C -0.658856375563 1.548506549944 0.152177589276
C -0.788186994833 0.212719283733 0.407795380857
N 0.121530351948 -0.403215898823 1.287403932432
C 1.474072920541 -0.645758305147 0.905534529819
H -0.288161752325 -1.246470569632 1.686579341666
C 0.330385069003 2.438592056671 0.721658580689
N -0.954796572081 3.634071544464 -0.695455116091
C -1.507109342559 2.359081689956 -0.775849008007
C 0.112935650704 3.671538913707 0.198743568916
C -1.871559829657 -0.650599414364 -0.092061434610
C -3.221690415976 -0.314066784683 0.068308554205
C -1.528115595697 -1.892630444093 -0.649975050380
C -4.211931463143 -1.195812417666 -0.354682020398
C -2.524165877123 -2.763383684960 -1.085539951866
C -3.868010811876 -2.419581977260 -0.932855043481
C 2.308230392462 -1.303776493641 1.816423833694
C 2.013617807646 -0.209582910553 -0.309007555292
C 3.633978210782 -1.576411670705 1.497463946051
C 3.345571589701 -0.473891862193 -0.617101072715
C 4.182929811180 -1.140523070501 0.284923839229
H -1.335704263311 4.416019615013 -1.210963464067
O -2.467195960131 2.051350549461 -1.480533430697
H -3.485302505575 0.639093947502 0.515878919165
H -0.477904955780 -2.153485376052 -0.769625268177
H -5.258426304730 -0.931014605105 -0.226705791572
H -2.251780817937 -3.714384230604 -1.536550052321
H -4.645894441580 -3.102479851585 -1.265063289000
H 1.904914564143 -1.624243306258 2.775312693186
H 1.386537171127 0.306204310387 -1.029764270165
H 4.261225349291 -2.101879854564 2.215531317232
H 3.746292875241 -0.139267591384 -1.572541841271
N 5.506736850599 -1.463271161480 -0.065859052343
H 1.078216168126 2.172502156939 1.454816391895
H 0.630385247985 4.602647297003 0.392758441157
H 6.109683648317 -1.589206426215 0.741081555098
H 5.923314360062 -0.788743985455 -0.699628528801
