36

C 1.64806418 -0.15104801 -0.10426263
N 0.70396438 0.50094927 0.73420326
C -0.62054077 0.48748239 0.51764370
C -1.30548577 -0.68367147 0.80779862
H 0.90122406 0.56489266 1.75134726
C -1.30148864 1.73937698 0.06264899
C -2.18179109 -1.51370467 0.02421150
N -1.99902516 -2.37342537 2.10634901
C -1.19870951 -1.25499523 2.14770553
C -2.58094628 -2.52747539 0.84004455
C -2.47942809 2.17936182 0.71827966
C -0.76349697 2.53371950 -0.98364778
C -3.11424589 3.36329952 0.32027107
C -1.40374965 3.71593802 -1.37825552
C -2.58358041 4.13667542 -0.73203605
C 2.84863891 -0.64369272 0.46203613
C 1.34187895 -0.45882838 -1.45431985
C 3.76199927 -1.35263741 -0.33172007
C 2.26477634 -1.16611355 -2.23842504
C 3.49942308 -1.61381913 -1.70187198
H -2.11678483 -2.97555962 2.90828698
O -0.52751904 -0.84450401 3.12220709
H -2.89297525 1.58917868 1.53845292
H 0.15433199 2.22304980 -1.48466209
H -4.02360260 3.68742915 0.82923060
H -0.98448523 4.31276678 -2.19031790
H -3.08168344 5.05684320 -1.04277950
H 3.04633144 -0.46202451 1.52104227
H 0.38443749 -0.14356345 -1.87279108
H 4.68618443 -1.70838859 0.12914324
H 2.01164505 -1.37537833 -3.28009755
N 4.43072107 -2.32321292 -2.50809136
H -2.47709081 -1.36428118 -1.00388085
H -3.24045856 -3.36128517 0.64303071
H 5.37690701 -2.14759535 -2.16059305
H 4.45373235 -1.89680571 -3.43822481
