36

C 1.78238673 0.03718183 -0.59838058
N 0.52459356 0.43374349 -1.13605245
C -0.68922692 0.56324046 -0.55821056
C -0.83314538 0.57277201 0.82207676
H 0.48553188 0.78093085 -2.10468545
C -1.90186864 0.56775942 -1.43643028
C -0.49158943 1.56973704 1.80336728
N -1.43824645 -0.19747326 2.83736007
C -1.44738157 -0.56276680 1.50953135
C -0.87192598 1.07123066 3.01034806
C -2.88436848 1.57794351 -1.28575061
C -2.09242585 -0.43655035 -2.41965511
C -4.01810807 1.59179341 -2.10947443
C -3.22695277 -0.41609031 -3.24244052
C -4.19545162 0.59788864 -3.09391967
C 2.95284844 0.57980618 -1.18536173
C 1.90936668 -0.76377367 0.56503215
C 4.21473531 0.29892046 -0.64220319
C 3.17669562 -1.03494609 1.10177552
C 4.35616522 -0.52069554 0.50653136
H -1.80746238 -0.80391131 3.55556976
O -1.85581033 -1.64968160 1.05147941
H -2.75089476 2.34897380 -0.52455056
H -1.35223474 -1.23123189 -2.53021031
H -4.76342561 2.37978749 -1.98869699
H -3.35770978 -1.18830525 -4.00264693
H -5.07793053 0.61277023 -3.73615836
H 2.85082031 1.22556538 -2.06139894
H 1.02385108 -1.18929191 1.03043984
H 5.09627009 0.73279544 -1.11975921
H 3.23892904 -1.65798395 1.99690393
N 5.63649974 -0.80687236 1.05391607
H -0.02133432 2.52610334 1.62610802
H -0.78954247 1.50231547 3.99834627
H 6.33158917 -0.80065205 0.30327437
H 5.65113719 -1.78252076 1.36280266
