36

C 1.60144839 -0.43601091 -0.51211685
N 0.23441113 -0.64678790 -0.86308516
C -0.89883627 -0.18469606 -0.27709747
C -1.06131133 -0.22429422 1.10095659
H 0.06189930 -0.78704112 -1.86796584
C -1.96338984 0.42125601 -1.14798434
C -0.98203603 0.79326784 2.11935306
N -1.52198127 -1.17532135 3.07779547
C -1.42266420 -1.48901210 1.74004728
C -1.26414962 0.18166624 3.30122242
C -2.53586470 1.67971700 -0.82603846
C -2.44355639 -0.27038291 -2.29269340
C -3.54083419 2.23282373 -1.63135000
C -3.44491438 0.29040034 -3.09682858
C -3.99915447 1.54459343 -2.77263517
C 2.55925724 -0.44096008 -1.56100347
C 2.03618200 -0.10152413 0.79681510
C 3.91007343 -0.17315471 -1.29621395
C 3.39050698 0.16640665 1.04894348
C 4.35845921 0.12320951 0.01506248
H -1.75722217 -1.87524636 3.76667248
O -1.60544460 -2.61684235 1.23667051
H -2.19168372 2.22612423 0.05242063
H -2.03473980 -1.25155768 -2.54388939
H -3.96876520 3.20302019 -1.37254396
H -3.79551697 -0.25096325 -3.97745102
H -4.77973816 1.97915972 -3.39972974
H 2.22563913 -0.65533063 -2.57991040
H 1.32744274 -0.06233708 1.61663439
H 4.61826703 -0.19191810 -2.12779976
H 3.68928037 0.41291895 2.07042076
N 5.72982212 0.38495917 0.28440988
H -0.72961876 1.83508675 1.98423154
H -1.29873537 0.58741642 4.30276452
H 6.30741565 -0.13459642 -0.38144538
H 5.97719470 -0.04867384 1.17793475
