36

C 1.67605325 -0.49289437 -0.24260656
N 0.31083708 -0.88033210 -0.28072015
C -0.69626450 -0.04592531 0.02492624
C -1.29220966 -0.27044402 1.25476892
H 0.00712568 -1.60400190 -0.95164485
C -1.51830476 0.54125106 -1.07685318
C -1.34286179 0.51513567 2.45966270
N -2.51752569 -1.39165787 2.75761075
C -2.06190532 -1.49659344 1.46252384
C -2.08805621 -0.19589800 3.34876847
C -1.76521105 1.93546223 -1.08887921
C -2.06369857 -0.26397066 -2.10987450
C -2.52196118 2.51255593 -2.11758548
C -2.81743067 0.31868096 -3.13764187
C -3.04977997 1.70941503 -3.14972234
C 2.59581975 -1.10399913 -1.12878507
C 2.10214390 0.59386080 0.56058831
C 3.92868294 -0.66842862 -1.16742761
C 3.43749749 1.01862030 0.51419328
C 4.38163474 0.39202401 -0.33940962
H -3.08737033 -2.10970205 3.18057409
O -2.27127225 -2.44754539 0.67524657
H -1.35748576 2.55940319 -0.29132164
H -1.90272655 -1.34395248 -2.09702123
H -2.70047576 3.58928065 -2.11934977
H -3.22546634 -0.31023254 -3.93078515
H -3.63638999 2.16054035 -3.95229216
H 2.24798547 -1.91128643 -1.77750742
H 1.38235265 1.08777445 1.21489709
H 4.61842658 -1.16044127 -1.85684164
H 3.74141696 1.85273356 1.15040713
N 5.73279787 0.83100261 -0.37802329
H -0.88817966 1.47937107 2.63393859
H -2.36577570 0.03687385 4.36749165
H 6.33571492 0.04297687 -0.62730737
H 6.03624945 1.04884698 0.57488249
