6327
     RDKit          3D

  5  4  0  0  0  0  0  0  0  0999 V2000
    1.6546    0.1432   -0.0744 Cl  0  0  0  0  0  0  0  0  0  0  0  0
   -0.1220    0.0017    0.0180 C   0  0  0  0  0  0  0  0  0  0  0  0
   -0.4754   -0.6217   -0.8424 H   0  0  0  0  0  0  0  0  0  0  0  0
   -0.4381   -0.5241    0.9446 H   0  0  0  0  0  0  0  0  0  0  0  0
   -0.6191    1.0010   -0.0458 H   0  0  0  0  0  0  0  0  0  0  0  0
  1  2  1  0
  2  3  1  0
  2  4  1  0
  2  5  1  0
M  END
